data_I
_chemical_name_common  'BOHWIG'
_cell_length_a 14.90832
_cell_length_b 14.90821
_cell_length_c 27.75649
_cell_angle_alpha 90.01030
_cell_angle_beta  90.01206
_cell_angle_gamma 89.99254


_symmetry_space_group_name_H-M    'P 1'
_symmetry_int_tables_number       1
_space_group_name_H-M_alt      'P 1'


loop_
_space_group_symop_operation_xyz
  'x, y, z' 

loop_
_atom_site_label
_atom_site_fract_x
_atom_site_fract_y
_atom_site_fract_z
_atom_site_type_symbol
Zr    0.000875000 -0.000481123 0.086851552 Zr
Zr    0.500094902 0.500003321 0.587367731 Zr
Zr    -0.000744641 0.000797036 0.913413301 Zr
Zr    0.499865066 0.500003307 0.413951700 Zr
Zr    0.147290164 0.051961607 0.000058556 Zr
Zr    0.051927383 0.853008311 -0.000898628 Zr
Zr    0.647311238 0.551543102 0.500638888 Zr
Zr    0.352649470 0.448471100 0.500638689 Zr
Zr    0.448416359 0.647333175 0.500623211 Zr
Zr    0.551545985 0.352672002 0.500550017 Zr
O     0.126415057 0.037966301 0.127832438  O
O     0.875973377 -0.040443422 0.128317741  O
O     -0.038125622 0.124740796 0.128369348  O
O     0.041707004 0.873196430 0.127770124  O
O     -0.374450098 0.538863219 0.628455606  O
O     0.374725793 0.461134151 0.628413370  O
O     0.461095318 -0.374586428 0.628321835  O
O     0.539104790 0.374619806 0.628280871  O
O     0.872967675 -0.038952255 0.872158795  O
O     0.124803958 0.041980604 0.871612473  O
O     0.038204353 0.875803164 0.871662908  O
O     -0.041448668 0.126739570 0.872180854  O
O     0.374024389 0.459686746 0.372165997  O
O     -0.374415896 0.540374180 0.372197496  O
O     0.540098732 0.374161344 0.372026354  O
O     0.459601042 -0.374189466 0.372078706  O
C     0.500860786 -0.000274832 0.249399000  C
C     -0.000422444 0.499438257 0.249854994  C
C     0.000414318 0.500881906 0.749953205  C
C     0.499234732 0.000220802 0.749481672  C
O     0.787013772 0.467361177 0.496547091  O
O     0.212930571 0.532675526 0.496549546  O
O     0.532475009 0.787042831 0.496564114  O
O     0.467445943 0.212980087 0.496429102  O
O     0.214238957 0.201749521 0.002925126  O
O     0.201143121 0.785126333 -0.002213893  O
O     0.714238806 0.701425453 0.503627251  O
O     0.285652632 0.298635722 0.503487330  O
O     0.298694804 0.714623732 0.502986134  O
O     0.701329304 0.285485906 0.503112931  O
O     0.226870545 0.084911960 0.071591707  O
O     0.774814064 -0.085930251 0.071967456  O
O     -0.084863842 0.225744597 0.072255946  O
O     0.080931790 0.770037585 0.070953568  O
O     -0.273733014 0.585145129 0.572196664  O
O     0.273815785 0.414918008 0.572171744  O
O     0.414659506 -0.273944162 0.571998368  O
O     0.585306239 0.273815657 0.571972211  O
O     0.769869454 -0.079010359 0.928765177  O
O     0.228619807 0.080716002 0.928234998  O
O     0.084685278 0.774684190 0.927757087  O
O     -0.080172231 0.230051644 0.928996808  O
O     0.270531920 0.420762929 0.428860047  O
O     -0.270748078 0.579250079 0.428874782  O
O     0.579048841 0.270534121 0.428652924  O
O     0.420903448 -0.270398580 0.428685327  O
C     0.278109657 0.050480396 0.150543957  C
C     0.724043865 -0.051896094 0.150973168  C
C     -0.050868356 0.276336996 0.151285753  C
C     0.050167300 0.721260067 0.150627399  C
C     -0.222717828 0.551422976 0.651260301  C
C     0.223022129 0.449149284 0.651209769  C
C     0.448601543 -0.222874119 0.650983561  C
C     0.550905211 0.222877952 0.650909785  C
C     0.721239058 -0.049046455 0.848952629  C
C     0.276758396 0.050600302 0.848454129  C
C     0.050944675 0.724083105 0.848660822  C
C     -0.049961974 0.278811253 0.849247674  C
C     0.222086298 0.450416380 0.349066012  C
C     -0.222560204 0.549454889 0.349058328  C
C     0.549689476 0.222249521 0.348754628  C
C     0.450770317 -0.222272846 0.348828644  C
C     0.264898001 -0.003425578 0.191130593  C
C     0.737219606 0.002054730 0.191573583  C
C     0.003494873 0.263387716 0.191734932  C
C     -0.004135637 0.734835042 0.191029466  C
C     -0.235940973 0.498069922 0.692060427  C
C     0.236417871 0.502977883 0.691840913  C
C     0.502483821 -0.235981868 0.691608849  C
C     0.496864452 0.236246962 0.691432319  C
C     0.734652099 0.004708011 0.808329231  C
C     0.263460641 -0.003551087 0.807944241  C
C     -0.002729939 0.737157078 0.807943596  C
C     0.003616104 0.265194806 0.808558451  C
C     0.235240495 0.504439963 0.308527374  C
C     -0.235856825 0.495136327 0.308619330  C
C     0.495929497 0.235435403 0.308082123  C
C     0.504661648 -0.235789206 0.308255396  C
H     0.199523832 -0.034523734 0.196386368  H
H     0.802644375 0.033020456 0.196930267  H
H     0.035051505 0.198183529 0.196899282  H
H     -0.035437438 0.800217699 0.196037005  H
H     -0.301383483 0.467228141 0.697511622  H
H     0.301884009 0.533879144 0.697145605  H
H     0.533619956 -0.301334288 0.696947607  H
H     0.465944134 0.301725292 0.696700225  H
H     0.799911692 0.036156496 0.803233076  H
H     0.198194997 -0.034999461 0.802800982  H
H     -0.033920973 0.802479512 0.802575792  H
H     0.034616823 0.199734389 0.803313022  H
H     0.300411714 0.536077757 0.303418928  H
H     -0.301041691 0.463446972 0.303610604  H
H     0.464279533 0.300606712 0.302914540  H
H     0.536022897 -0.301124526 0.303164472  H
C     0.335130649 -0.019959239 0.223178938  C
C     0.666856013 0.018899873 0.223488358  C
C     0.019935479 0.333717651 0.223743985  C
C     -0.020658576 0.664864955 0.223220337  C
C     -0.165608729 0.481653651 0.724069386  C
C     0.166227360 0.519760978 0.723853321  C
C     0.518999828 -0.165611105 0.723562955  C
C     0.479970934 0.166012782 0.723380557  C
C     0.664666310 0.020602764 0.776028734  C
C     0.333611339 -0.019874224 0.775809998  C
C     -0.019048205 0.666822926 0.775909466  C
C     0.019916479 0.335216609 0.776359593  C
C     0.165088294 0.520360769 0.276315418  C
C     -0.165814308 0.478947035 0.276407810  C
C     0.480216956 0.165322521 0.275804905  C
C     0.520843135 -0.165826156 0.275987013  C
H     0.323735719 -0.065008650 0.253382815  H
H     0.678233994 0.064040341 0.253679140  H
H     0.065382072 0.322604964 0.253827910  H
H     -0.066008675 0.676372050 0.253289596  H
H     -0.177036468 0.436993558 0.754437146  H
H     0.177714207 0.564789324 0.754079383  H
H     0.564089882 -0.176860762 0.753784985  H
H     0.434800988 0.177512082 0.753525074  H
H     0.676007958 0.065546252 0.745774773  H
H     0.322356623 -0.065128643 0.745655073  H
H     -0.063936052 0.678081437 0.745599060  H
H     0.064699481 0.323643718 0.746053270  H
H     0.176272696 0.565535174 0.246142380  H
H     -0.177035332 0.433496106 0.246336823  H
H     0.435215762 0.176513232 0.245534188  H
H     0.565902391 -0.177303121 0.245787305  H
C     0.419726489 0.018402329 0.216128010  C
C     0.582174829 -0.019243548 0.216315664  C
C     -0.019048122 0.418064395 0.216777759  C
C     0.018145693 0.580348812 0.216503743  C
C     -0.080889032 0.519607610 0.716787157  C
C     0.081492596 0.481704535 0.716742853  C
C     0.480574736 -0.081067183 0.716368933  C
C     0.518142882 0.081319202 0.716290121  C
C     0.580248446 -0.018296510 0.782835889  C
C     0.418055958 0.018996148 0.782656375  C
C     0.019325904 0.582231749 0.783072919  C
C     -0.018356297 0.419931968 0.783308975  C
C     0.080789366 0.481184087 0.283115213  C
C     -0.081495388 0.518170738 0.283101282  C
C     0.519330045 0.080968271 0.282646041  C
C     0.482094396 -0.081278349 0.282738118  C
C     0.431606095 0.074634528 0.175917159  C
C     0.570358462 -0.075588792 0.176116742  C
C     -0.075821204 0.429621036 0.176739247  C
C     0.074854935 0.568170457 0.176514423  C
C     -0.069050808 0.575429206 0.676405108  C
C     0.069470775 0.425419776 0.676533111  C
C     0.424318647 -0.069317339 0.676136430  C
C     0.574538102 0.069293065 0.676152944  C
C     0.568334539 -0.074704846 0.822970860  C
C     0.429867178 0.075717341 0.822700112  C
C     0.075546526 0.570588166 0.823340491  C
C     -0.074481420 0.432110557 0.823547296  C
C     0.069120750 0.424593362 0.323193965  C
C     -0.069703460 0.575120118 0.323050807  C
C     0.575754335 0.069305200 0.322826138  C
C     0.425533195 -0.069270528 0.322816589  C
H     0.497104930 0.104664114 0.169374704  H
H     0.504826259 -0.105497420 0.169470861  H
H     -0.106489532 0.494907425 0.170359920  H
H     0.105403339 0.502765768 0.170343492  H
H     -0.003513521 0.605244286 0.669701977  H
H     0.003896200 0.395551372 0.669954487  H
H     0.394255098 -0.003840639 0.669517320  H
H     0.604449066 0.003713925 0.669615774  H
H     0.503111950 -0.105610355 0.829119751  H
H     0.495115216 0.106550144 0.828917914  H
H     0.105868920 0.505203643 0.829893345  H
H     -0.104742723 0.497580099 0.829921332  H
H     0.003972567 0.393540760 0.329365848  H
H     -0.004527438 0.606202741 0.329141744  H
H     0.606785209 0.004147656 0.329065556  H
H     0.394712150 -0.003980965 0.328964603  H
C     0.362442292 0.089678331 0.143350020  C
C     0.639622262 -0.090881685 0.143674140  C
C     -0.090733032 0.360408511 0.144203784  C
C     0.089919414 0.637005077 0.143806228  C
C     -0.138295189 0.590320794 0.643870842  C
C     0.138575562 0.410170519 0.643983240  C
C     0.409341985 -0.138593095 0.643649601  C
C     0.589908729 0.138443147 0.643670772  C
C     0.637170355 -0.089127830 0.855798185  C
C     0.360892168 0.090562208 0.855352959  C
C     0.090334613 0.639811906 0.855899932  C
C     -0.089308993 0.363225714 0.856268383  C
C     0.138098396 0.410168779 0.355930929  C
C     -0.138566729 0.589782495 0.355806681  C
C     0.589963053 0.138239307 0.355628781  C
C     0.410856436 -0.138062642 0.355615025  C
H     0.373699111 0.130680166 0.111461913  H
H     0.628379600 -0.131929630 0.111780578  H
H     -0.132190487 0.371357307 0.112435807  H
H     0.131923702 0.625690448 0.112284339  H
H     -0.127033546 0.630973679 0.611854585  H
H     0.127178589 0.369180093 0.612084053  H
H     0.368352451 -0.127489396 0.611723253  H
H     0.631039645 0.127121238 0.611831642  H
H     0.626031389 -0.130879559 0.887431258  H
H     0.371932152 0.132578759 0.886915813  H
H     0.131323672 0.628694387 0.887828884  H
H     -0.130796259 0.374630584 0.887980943  H
H     0.127174932 0.368294333 0.387538596  H
H     -0.127529630 0.631870039 0.387343157  H
H     0.631662764 0.127224596 0.387314792  H
H     0.369044523 -0.126783148 0.387218512  H
C     0.204493333 0.059435855 0.114132578  C
C     0.797606021 -0.061054702 0.114547375  C
C     -0.059603093 0.202868630 0.114770285  C
C     0.059292944 0.794464386 0.114014882  C
C     -0.296286765 0.560094515 0.614821953  C
C     0.296488132 0.440078455 0.614777167  C
C     0.439812303 -0.296475906 0.614609002  C
C     0.560120450 0.296428840 0.614563592  C
C     0.794310772 -0.057275273 0.885718631  C
C     0.203733527 0.059391050 0.885200390  C
C     0.059519163 0.797501137 0.885220808  C
C     -0.058807914 0.205645341 0.885904667  C
C     0.295210642 0.442027325 0.385838815  C
C     -0.295555515 0.557980487 0.385860413  C
C     0.557835268 0.295285887 0.385617366  C
C     0.442153529 -0.295237642 0.385669053  C
O     0.110117153 0.947717966 0.044024261  O
O     0.051732683 0.108829954 0.044792871  O
O     0.390747002 0.551472387 0.544916690  O
O     0.609340383 0.448511782 0.544885259  O
O     0.448562208 0.390681194 0.544899536  O
O     0.551512356 0.609324861 0.544947716  O
O     0.051903822 0.109516756 0.955578262  O
O     0.608524293 0.447562019 0.455675652  O
O     0.391307802 0.552469198 0.455708538  O
O     0.552331867 0.608544492 0.455738754  O
O     0.447509723 0.391463140 0.455692733  O
Zr    -0.147082634 -0.051622040 0.000729304 Zr
O     -0.214889526 -0.200802808 0.001118176  O
O     -0.050556828 -0.108796517 0.044576825  O
Zr    -0.051742842 0.147377333 0.000675101 Zr
O     -0.201281095 0.214752900 0.002917454  O
O     -0.109165677 0.051455365 0.045087075  O
O     0.287216937 -0.031859590 -0.004834529  O
O     -0.031901550 0.712937777 0.003477324  O
O     0.108192219 -0.050875585 0.954821965  O
O     -0.108781267 0.052434479 0.955863687  O
O     -0.052705466 -0.108898122 0.955371399  O
O     -0.287104316 0.032290570 -0.003154137  O
O     0.032050396 0.287401933 -0.003227222  O
H     0.269150351 -0.094846147 -0.002208678  H
H     0.297772606 -0.020902931 -0.039101936  H
H     -0.269111023 0.095188028 0.000232765  H
H     -0.297767355 0.022652642 -0.037530252  H
H     0.094972568 0.269317111 -0.000012060  H
H     0.022216621 0.298307871 -0.037558528  H
H     -0.020906301 0.701693312 0.037681089  H
H     -0.094881337 0.731130361 0.000969808  H
H     0.768938978 0.404507816 0.500097010  H
H     0.797512101 0.476674749 0.462150306  H
H     0.231039431 0.595532781 0.500049892  H
H     0.202415484 0.523227596 0.462154493  H
H     0.595338162 0.769009509 0.500211279  H
H     0.523204859 0.797396426 0.462141718  H
H     0.404596970 0.231040219 0.500081446  H
H     0.476647422 0.202599950 0.462005559  H
H     0.244550297 0.189030204 0.033731546  H
H     0.258320601 0.200201324 -0.022960845  H
H     -0.249232578 -0.190243719 0.030775935  H
H     -0.254984597 -0.196290976 -0.026582766  H
H     -0.189331527 0.245452874 0.033664735  H
H     -0.198480823 0.258359128 -0.023195400  H
H     0.197391452 0.744853340 0.025421636  H
H     0.189758777 0.750978755 -0.031874933  H
H     0.743206547 0.688302603 0.534804268  H
H     0.759526372 0.700308796 0.478366467  H
H     0.256553316 0.311646324 0.534626761  H
H     0.240497968 0.299921960 0.478137308  H
H     0.311199709 0.744400950 0.533982003  H
H     0.300622706 0.759140158 0.477328190  H
H     0.688648407 0.255973322 0.534154458  H
H     0.699655294 0.240714087 0.477565499  H
