data_I
_chemical_name_common  'DOYBEA'
_cell_length_a  6.70018
_cell_length_b 13.17808
_cell_length_c 14.03832
_cell_angle_alpha 89.99986
_cell_angle_beta  125.46696
_cell_angle_gamma 89.99981


_symmetry_space_group_name_H-M    'P 1'
_symmetry_int_tables_number       1
_space_group_name_H-M_alt      'P 1'


loop_
_space_group_symop_operation_xyz
  'x, y, z' 

loop_
_atom_site_label
_atom_site_fract_x
_atom_site_fract_y
_atom_site_fract_z
_atom_site_type_symbol
Al    0.499999159 0.499999373 -0.000001975 Al
Al    0.500000601 0.000000193 0.500001924 Al
Al    0.000001869 0.500001112 0.000001356 Al
Al    -0.000001773 0.000000358 0.499998716 Al
O     0.237278615 0.398622370 0.117383876  O
O     0.762722657 0.601379573 0.882615760  O
O     0.762849414 0.898567062 0.382675976  O
O     0.237150467 0.101434713 0.617324927  O
O     0.572546210 0.394901331 0.114314000  O
O     0.427457056 0.605098964 0.885686953  O
O     0.427433807 0.894945001 0.385640777  O
O     0.572563437 0.105055014 0.614359161  O
O     0.428970024 0.103170478 0.384675710  O
O     0.571026189 0.896829623 0.615323678  O
O     0.571041073 0.603124797 0.115366665  O
O     0.428961284 0.396875692 0.884632708  O
O     0.773065489 0.105628955 0.388813265  O
O     0.226933412 0.894369861 0.611186842  O
O     0.226811188 0.605682287 0.111123073  O
O     0.773190027 0.394317170 0.888876463  O
C     0.445747204 0.362453013 0.147430532  C
C     0.554251098 0.637546798 0.852567425  C
C     0.554286842 0.862452901 0.352570333  C
C     0.445713408 0.137547857 0.647430488  C
C     0.559204893 0.273393607 0.231349465  C
C     0.440791614 0.726605452 0.768648171  C
C     0.440790288 0.773402792 0.268641960  C
C     0.559214946 0.226596839 0.731360691  C
C     0.444822921 0.228021506 0.271069310  C
C     0.555182441 0.771979309 0.728933604  C
C     0.555183499 0.728008505 0.228940208  C
C     0.444810691 0.271991571 0.771057381  C
C     0.559069934 0.139049555 0.354789986  C
C     0.440930803 0.860951108 0.645212091  C
C     0.440895431 0.639046889 0.145207724  C
C     0.559105303 0.360952534 0.854791243  C
H     0.743124948 0.245834782 0.259460338  H
H     0.256864260 0.754159791 0.740533626  H
H     0.256850405 0.745864161 0.240523441  H
H     0.743166483 0.254129440 0.759484944  H
H     0.260898156 0.255713365 0.242865276  H
H     0.739115287 0.744292349 0.757141374  H
H     0.739128270 0.755679995 0.257152072  H
H     0.260854138 0.244325791 0.742840081  H
O     0.847721310 0.500951045 0.074020670  O
O     0.152279973 0.499048680 0.925979717  O
O     0.152279500 1.000950699 0.425980181  O
O     0.847718176 -0.000951088 0.574018706  O
H     0.959634757 0.522114744 0.159030434  H
H     0.040369090 0.477884775 0.840971123  H
H     0.040357412 0.022104906 0.340966879  H
H     0.959636315 0.977892402 0.659030669  H
