data_I
_chemical_name_common  'FUNBOG'
_cell_length_a 11.09290
_cell_length_b 16.16433
_cell_length_c 15.89959
_cell_angle_alpha 90.00007
_cell_angle_beta  90.36215
_cell_angle_gamma 90.00001


_symmetry_space_group_name_H-M    'P 1'
_symmetry_int_tables_number       1
_space_group_name_H-M_alt      'P 1'


loop_
_space_group_symop_operation_xyz
  'x, y, z' 

loop_
_atom_site_label
_atom_site_fract_x
_atom_site_fract_y
_atom_site_fract_z
_atom_site_type_symbol
Zn    0.501103745 0.500001736 0.586800960 Zn
Zn    0.498895296 0.499997819 0.413197908 Zn
H     0.140175843 0.836452995 0.366245031  H
H     0.253984386 0.702800109 0.636800956  H
H     0.257894861 0.704582230 0.367481424  H
H     0.135967483 0.834547536 0.636596630  H
H     0.859823931 0.836452713 0.633755449  H
H     0.746015875 0.702800408 0.363198254  H
H     0.742104855 0.704581952 0.632517895  H
H     0.864032737 0.834547904 0.363404134  H
H     0.859823714 0.163547239 0.633755243  H
H     0.746016591 0.297199572 0.363198762  H
H     0.742104831 0.295418085 0.632518444  H
H     0.864033467 0.165452012 0.363404056  H
H     0.140175220 0.163547190 0.366245308  H
H     0.253984470 0.297199990 0.636801895  H
H     0.257894032 0.295417604 0.367482388  H
H     0.135967503 0.165452268 0.636596603  H
H     0.698225587 0.500000150 0.712682867  H
H     0.326780264 0.500000117 0.728075792  H
H     0.333544242 0.499999992 0.887317652  H
H     0.721320165 0.499999986 0.871845436  H
H     0.301774690 0.499999917 0.287316886  H
H     0.673219704 0.499999955 0.271923805  H
H     0.666456211 0.500000376 0.112681833  H
H     0.278679865 0.500000343 0.128154094  H
C     0.262546381 0.695658825 0.502165058  C
C     0.063633279 0.923944876 0.500822762  C
C     0.164282375 0.806766825 0.425616898  C
C     0.227498094 0.732287160 0.577905182  C
C     0.229670474 0.733300090 0.426013121  C
C     0.130612172 0.844063811 0.501375498  C
C     0.339607457 0.619321147 0.502497030  C
C     0.161960642 0.805716316 0.577509791  C
C     0.737453648 0.695659078 0.497833699  C
C     0.936366667 0.923944626 0.499178049  C
C     0.835717401 0.806766603 0.574383088  C
C     0.772501754 0.732287014 0.422094817  C
C     0.770329385 0.733299932 0.573986638  C
C     0.869387974 0.844064099 0.498625623  C
C     0.660391987 0.619320591 0.497501982  C
C     0.838039619 0.805716554 0.422489747  C
C     0.737454091 0.304341001 0.497834460  C
C     0.936366675 0.076055182 0.499178078  C
C     0.835717343 0.193233456 0.574383532  C
C     0.772502720 0.267712518 0.422095136  C
C     0.770329544 0.266700172 0.573986959  C
C     0.869388127 0.155935766 0.498625133  C
C     0.660392149 0.380679259 0.497503438  C
C     0.838039783 0.194283747 0.422490362  C
C     0.262546147 0.304341080 0.502166835  C
C     0.063633232 0.076054963 0.500822723  C
C     0.164281470 0.193232668 0.425617450  C
C     0.227497824 0.267712812 0.577904957  C
C     0.229670333 0.266700411 0.426012845  C
C     0.130612013 0.155936233 0.501375151  C
C     0.339607406 0.380678688 0.502496873  C
C     0.161960760 0.194283849 0.577510230  C
C     0.620751438 0.500000160 0.754295968  C
C     0.411605778 0.500000152 0.763224505  C
C     0.415534363 0.500000032 0.850407472  C
C     0.528874465 0.500000049 0.890408229  C
C     0.632999105 0.500000019 0.841454286  C
C     0.379249028 0.499999910 0.245703131  C
C     0.588394936 0.499999945 0.236774645  C
C     0.584465374 0.500000229 0.149592428  C
C     0.471126117 0.500000256 0.109591149  C
C     0.367000991 0.500000207 0.158545788  C
C     0.124351682 -0.000000046 0.501681948  C
C     0.875648327 -0.000000093 0.498319051  C
Br    0.297196229 0.000000052 0.504336995 Br
Br    0.702803813 -0.000000067 0.495664061 Br
N     0.512176376 0.500000278 0.716369066  N
N     0.547894312 0.500000073 0.978817422  N
N     0.487823320 0.499999698 0.283630606  N
N     0.452105768 0.500000310 0.021182079  N
O     0.369856831 0.590298716 0.431374345  O
O     0.371389740 0.590437575 0.573769042  O
O     0.630143327 0.590299717 0.568625439  O
O     0.628610015 0.590436868 0.426231333  O
O     0.630143386 0.409700917 0.568624406  O
O     0.628610298 0.409562118 0.426230270  O
O     0.369856225 0.409700229 0.431374386  O
O     0.371390263 0.409563150 0.573769100  O
