data_I
_chemical_name_common  'GEBPEK'
_cell_length_a 20.32015
_cell_length_b 22.03173
_cell_length_c 21.11207
_cell_angle_alpha 89.47576
_cell_angle_beta  64.17351
_cell_angle_gamma 58.41803


_symmetry_space_group_name_H-M    'P 1'
_symmetry_int_tables_number       1
_space_group_name_H-M_alt      'P 1'


loop_
_space_group_symop_operation_xyz
  'x, y, z' 

loop_
_atom_site_label
_atom_site_fract_x
_atom_site_fract_y
_atom_site_fract_z
_atom_site_type_symbol
Zn    0.060895039 0.964793922 0.884448037 Zn
Zn    0.913344862 0.975710406 0.027005389 Zn
Zn    0.919288938 0.116318467 0.014997379 Zn
Zn    0.078788456 0.961038038 0.027032224 Zn
O     -0.007254594 0.004380357 -0.012055524  O
O     0.921087039 0.920489619 0.948497742  O
C     -0.030131239 0.898389316 0.881510336  C
O     0.023284784 0.913613286 0.847806679  O
C     -0.038065663 0.850035402 0.841178162  C
C     1.011402521 0.817513123 0.770666403  C
C     1.008966742 0.767053885 0.728530032  C
C     1.065065910 0.737795751 0.654933042  C
C     1.065643713 0.688958946 0.612702029  C
C     0.009944149 0.667835445 0.643135816  C
C     -0.046336823 0.696631158 0.716463407  C
C     -0.046850380 0.745390361 0.758368060  C
C     0.009848812 0.615446185 0.598400288  C
O     0.061757650 0.591793188 0.532108115  O
O     0.957615807 0.598658359 0.630217624  O
H     -0.086359851 0.841195376 0.873674096  H
H     1.058431050 0.829310921 0.742149968  H
H     1.108681177 0.753958973 0.631072244  H
H     1.109087152 0.666508014 0.555861933  H
H     -0.089335536 0.679881128 0.739635920  H
H     -0.090884620 0.766852288 0.815114667  H
O     0.916461620 0.153029156 0.930033777  O
C     -0.020266407 0.119850763 0.866919369  C
O     0.046961329 0.049465707 0.842531915  O
C     -0.027218248 0.169865668 0.818468964  C
C     0.042153577 0.168266923 0.775634776  C
C     0.035626289 0.220515589 0.730589702  C
C     0.063717810 0.265152538 0.735122081  C
C     0.053618639 0.317206895 0.694995458  C
C     0.021249374 0.321609341 0.645659125  C
C     0.996431106 0.275143710 0.638723011  C
C     1.001031463 0.226849918 0.682298591  C
C     0.014069998 0.374688149 0.600006763  C
O     0.031578958 0.351158267 0.536571823  O
O     0.991022704 0.439204447 0.627677503  O
H     0.905640745 0.213657402 0.824650022  H
H     0.106749094 0.127825877 0.775666896  H
H     0.091247929 0.260345774 0.772040752  H
H     0.072002053 0.354001134 0.700630098  H
H     0.972872142 0.277845988 0.599382851  H
H     0.980224911 0.191678300 0.677846286  H
O     0.203254315 0.894221042 0.953940601  O
C     0.235286770 0.872694559 0.886608084  C
O     0.190535819 0.890798820 0.851437951  O
C     0.333792837 0.822387180 0.847666043  C
C     0.378428905 0.798486343 0.776298755  C
C     0.474947193 0.750849631 0.733510886  C
C     0.509739667 0.737547758 0.659286812  C
C     0.601138053 0.693879449 0.616099098  C
C     0.660571095 0.661763838 0.646107908  C
C     0.626808912 0.673917697 0.719995249  C
C     0.535570642 0.717729773 0.762953333  C
C     0.758869971 0.615372272 0.599974867  C
O     0.784258583 0.608662263 0.533661549  O
O     0.809055394 0.586571853 0.630805365  O
H     0.367563389 0.807526682 0.881199889  H
H     0.338458190 0.817495021 0.747289752  H
H     0.463624014 0.762579814 0.635790034  H
H     0.627756725 0.684123319 0.558811530  H
H     0.673539494 0.648407683 0.742765400  H
H     0.510772537 0.726336862 0.820110022  H
O     0.794922019 0.163503932 0.081921011  O
C     0.754361894 0.134139788 0.104486584  C
O     0.788258721 0.063608450 0.086964476  O
C     0.659233536 0.189289705 0.155863998  C
C     0.606043696 0.169138260 0.187597933  C
C     0.512070663 0.221046489 0.238898340  C
C     0.463868236 0.191835571 0.264784619  C
C     0.373718606 0.239555580 0.312741363  C
C     0.329285516 0.318133186 0.336203416  C
C     0.376877421 0.347818383 0.311401102  C
C     0.466652781 0.300129136 0.263701841  C
C     0.231772734 0.370798278 0.385619822  C
O     0.191882440 0.340885496 0.407387492  O
O     0.196277729 0.441756416 0.401541128  O
H     0.635165027 0.248404568 0.166562480  H
H     0.635493987 0.108549151 0.173575069  H
H     0.498205275 0.130736885 0.246275818  H
H     0.336523915 0.216870499 0.332245033  H
H     0.341757401 0.408905020 0.330143239  H
H     0.502185194 0.324415723 0.245219026  H
O     0.062759089 0.900492953 0.090427917  O
C     1.007589872 0.884940705 0.108296657  C
O     0.947236986 0.907670419 0.088198372  O
C     1.016920301 0.835712659 0.157076425  C
C     0.963497195 0.814680030 0.182734795  C
C     0.968572589 0.766738259 0.231187898  C
C     0.903956012 0.753952074 0.256764173  C
C     0.905856372 0.709031596 0.303439564  C
C     0.973019893 0.675333789 0.325599172  C
C     0.038063717 0.687383919 0.300226308  C
C     0.035860520 0.732300476 0.253865281  C
C     0.976631843 0.626364074 0.375218827  C
O     0.915130286 0.618341168 0.397552712  O
O     0.041410226 0.596441477 0.391043507  O
H     0.070430953 0.818032195 0.171219798  H
H     0.910989149 0.835744699 0.166135855  H
H     0.851686323 0.780067082 0.239480203  H
H     0.855796360 0.699304499 0.323194386  H
H     0.090143175 0.660629578 0.317560342  H
H     0.087158309 0.740628662 0.234594219  H
O     0.063118846 0.043598205 0.081980289  O
C     1.013643383 0.115991132 0.091740387  C
O     0.960260331 0.153395631 0.064687485  O
C     1.021097275 0.157712543 0.139963168  C
C     -0.030420821 0.234451448 0.162993804  C
C     -0.026741275 0.276490525 0.213245506  C
C     -0.089945996 0.356650989 0.238362465  C
C     -0.089891130 0.398323266 0.287800005  C
C     0.973905295 0.360639616 0.313300938  C
C     1.037900456 0.280799475 0.288013384  C
C     1.037649114 0.239541499 0.238856484  C
C     0.975271228 0.403534781 0.366899134  C
O     0.916319254 0.475950436 0.388768345  O
O     0.036063686 0.363500450 0.386514338  O
H     1.070873904 0.120543763 0.157904277  H
H     -0.080151628 0.268228090 0.143754952  H
H     -0.139928817 0.386078806 0.218806113  H
H     -0.139111742 0.460231524 0.307335166  H
H     1.087452922 0.252168173 0.307883890  H
H     1.088081323 0.177731192 0.219965920  H
Zn    0.938551681 0.531186781 0.593172958 Zn
Zn    0.071628684 0.532208023 0.455320085 Zn
Zn    0.904091972 0.550179274 0.453415966 Zn
Zn    0.063070697 0.391081981 0.456415970 Zn
O     0.993422707 0.502146255 0.489271806  O
