data_I
_chemical_name_common  'HUHZAO'
_cell_length_a 24.77053
_cell_length_b 24.87566
_cell_length_c 17.47408
_cell_angle_alpha 90.04613
_cell_angle_beta  89.79774
_cell_angle_gamma 119.82871


_symmetry_space_group_name_H-M    'P 1'
_symmetry_int_tables_number       1
_space_group_name_H-M_alt      'P 1'


loop_
_space_group_symop_operation_xyz
  'x, y, z' 

loop_
_atom_site_label
_atom_site_fract_x
_atom_site_fract_y
_atom_site_fract_z
_atom_site_type_symbol
Al    0.416385644 0.710609328 -0.009021760 Al
Al    0.288933847 0.715086015 0.006334749 Al
Al    0.291118406 0.586878963 -0.001131129 Al
O     0.514880822 0.757270527 -0.010766729  O
O     0.246736660 0.755726838 0.015501580  O
O     0.244922801 0.488620730 0.004776563  O
O     0.427377629 0.762170225 0.906364231  O
O     0.239052996 0.668322080 0.917274214  O
O     0.331419105 0.572244917 0.913989448  O
O     0.437067975 0.777713578 0.060536783  O
O     0.230396617 0.655693213 0.078954553  O
O     0.346976200 0.574318404 0.066054877  O
O     0.224482598 0.572009786 0.935911904  O
O     0.348066737 0.779225156 0.935100642  O
O     0.426962289 0.656612640 0.922831239  O
O     0.239377646 0.570123672 0.088339286  O
O     0.341633426 0.760982279 0.093580695  O
O     0.432798808 0.668459738 0.075297514  O
O     0.333073202 0.670166708 -0.000487016  O
C     0.663965548 0.333516045 0.573801552  C
C     0.669712461 0.336105673 0.424789219  C
H     0.661492697 0.332366727 0.636443140  H
H     0.672175994 0.337240154 0.362141726  H
C     0.633032288 0.269306896 0.537915602  C
C     0.730456166 0.366786209 0.542619111  C
C     0.631800323 0.365791605 0.537755807  C
C     0.636975824 0.270576299 0.457681370  C
C     0.733418972 0.368697647 0.462336864  C
C     0.635542687 0.367889743 0.457479269  C
C     0.547345621 0.098976863 0.581856453  C
C     0.899722858 0.452834534 0.596582016  C
C     0.543029416 0.448707320 0.580726204  C
C     0.556584816 0.100810178 0.408361036  C
C     0.905264719 0.455719572 0.422132412  C
C     0.551760675 0.454284706 0.407086816  C
C     0.419408229 0.840287533 0.838800351  C
C     0.160843389 0.585015428 0.846637787  C
C     0.412277593 0.579071734 0.834121458  C
C     0.427953784 0.840307042 0.157222532  C
C     0.167012166 0.580342243 0.169049917  C
C     0.424871136 0.586732968 0.153174701  C
C     0.577393061 0.156849487 0.535878695  C
C     0.843594673 0.423912683 0.547828522  C
C     0.573909411 0.421088451 0.535362925  C
C     0.582631338 0.157865157 0.455226151  C
C     0.846438345 0.426273320 0.466910451  C
C     0.578901862 0.424490523 0.454644472  C
C     0.396007870 0.790009504 0.897185281  C
C     0.212157837 0.611049749 0.903459085  C
C     0.388309572 0.604507581 0.893995105  C
C     0.399745290 0.789073127 0.100467482  C
C     0.215949757 0.604195806 0.108380320  C
C     0.399777775 0.611727348 0.094586626  C
C     0.602902764 0.213141646 0.576279474  C
C     0.784927855 0.393761759 0.584556450  C
C     0.600895036 0.391503660 0.575907646  C
C     0.612464978 0.215595979 0.417108186  C
C     0.790500925 0.398159421 0.425262634  C
C     0.609892537 0.397366767 0.416722064  C
H     0.599850214 0.211820683 0.638632219  H
H     0.783042485 0.393374539 0.646962609  H
H     0.598567529 0.390613783 0.638293310  H
H     0.614628218 0.216355558 0.354717375  H
H     0.792806326 0.398549055 0.362889481  H
H     0.612039465 0.398539711 0.354323117  H
C     0.466819182 0.939592319 0.732690439  C
C     0.059724788 0.534267075 0.744626537  C
C     0.460769222 0.528603330 0.727501922  C
C     0.479332329 0.940806416 0.260346499  C
C     0.068157781 0.534164613 0.276068543  C
C     0.474247251 0.536621731 0.258530367  C
C     0.493202491 0.992923343 0.679229741  C
C     0.005268173 0.506736793 0.693604052  C
C     0.487600632 0.501100774 0.675449126  C
C     0.506255047 0.994764273 0.312098812  C
C     0.013523260 0.508320652 0.327699998  C
C     0.500838508 0.509294720 0.310536359  C
C     0.458592933 0.843198991 0.778841934  C
C     0.137860970 0.621958928 0.816906605  C
C     0.374848129 0.518860863 0.806203894  C
C     0.491140224 0.869263755 0.176058328  C
C     0.138556218 0.615223610 0.188403991  C
C     0.388650818 0.525874955 0.180172999  C
C     0.133672153 0.522856132 0.824242228  C
C     0.403444052 0.886809482 0.844972163  C
C     0.473541660 0.614479395 0.807020794  C
C     0.147023446 0.523185281 0.205113655  C
C     0.390372270 0.861426492 0.190945398  C
C     0.485494285 0.622840695 0.180927515  C
H     0.470918141 0.806953812 0.773960356  H
H     0.158946191 0.670003148 0.835377333  H
H     0.326972135 0.492087798 0.826526291  H
H     0.520243554 0.852444205 0.150674746  H
H     0.155061268 0.659906609 0.160530943  H
H     0.341328123 0.497931992 0.159391220  H
H     0.152247315 0.494665696 0.846994273  H
H     0.372976632 0.884400392 0.891687495  H
H     0.502206594 0.661235514 0.828952916  H
H     0.169525578 0.496384057 0.190581377  H
H     0.341491792 0.838996097 0.175104081  H
H     0.513205158 0.670648603 0.161692329  H
C     0.480724525 0.891307848 0.725871112  C
C     0.087994842 0.596847173 0.766643885  C
C     0.398906726 0.494008811 0.753825660  C
C     0.516391403 0.918606105 0.227055583  C
C     0.090035013 0.592420826 0.241234285  C
C     0.412825418 0.501321262 0.232131559  C
C     0.083998868 0.497993383 0.773827873  C
C     0.427757212 0.936078170 0.793777180  C
C     0.497266624 0.589635043 0.754224423  C
C     0.098311592 0.500446722 0.257895977  C
C     0.415804195 0.910946420 0.241544135  C
C     0.509828810 0.598123743 0.232494679  C
H     0.509331748 0.891192338 0.678340503  H
H     0.069268149 0.625510457 0.745799634  H
H     0.369353384 0.447253608 0.732195839  H
H     0.565368477 0.939953518 0.242243254  H
H     0.068700554 0.620228607 0.256255202  H
H     0.384529008 0.453450143 0.251070527  H
H     0.063922996 0.449880480 0.755846403  H
H     0.416900220 0.973026018 0.802437997  H
H     0.545467883 0.616966832 0.735113732  H
H     0.081874535 0.455007663 0.283667556  H
H     0.386485588 0.928149143 0.265339374  H
H     0.556879006 0.626943742 0.253938174  H
C     0.570313177 0.057597484 0.582991690  C
C     0.499189479 0.413245775 0.637347663  C
C     0.591599058 0.096047365 0.347814164  C
C     0.905873392 0.418834870 0.656611319  C
C     0.496218949 0.085880874 0.629082449  C
C     0.954117417 0.443752576 0.435967187  C
C     0.496052075 0.051123334 0.420284008  C
C     0.588057596 0.496964744 0.350010935  C
H     0.609984689 0.066710821 0.546774841  H
H     0.486580273 0.364890600 0.645039171  H
H     0.638887659 0.133763696 0.337688259  H
H     0.869636307 0.370852764 0.665676302  H
H     0.476890532 0.116848562 0.628127970  H
H     0.950353558 0.413729414 0.483446331  H
H     0.467750474 0.053353652 0.466781054  H
H     0.636566962 0.509028681 0.342928742  H
C     0.947185296 0.514489123 0.586266634  C
C     0.911979179 0.494988471 0.360717169  C
C     0.489509068 0.439817905 0.415235076  C
C     0.558101887 0.510730529 0.571669353  C
H     0.943533420 0.541917568 0.540165119  H
H     0.874866784 0.505315895 0.349207623  H
H     0.460449368 0.407019961 0.459267502  H
H     0.591764245 0.539139367 0.527900114  H
C     0.544300432 0.006260225 0.631266336  C
C     0.471714180 0.438754069 0.683462137  C
C     0.567078792 0.044119217 0.300825318  C
C     0.957641235 0.445114383 0.703910224  C
C     0.469225044 0.033623277 0.675727665  C
C     1.006997544 0.469388681 0.389580884  C
C     0.471452900 -0.000628797 0.373107360  C
C     0.563275807 0.524249360 0.302993490  C
H     0.565236770 -0.023222294 0.632698839  H
H     0.438683493 0.410445905 0.727888548  H
H     0.594998468 0.042415274 0.253384359  H
H     0.960776950 0.417820016 0.750607843  H
H     0.428515144 0.024410849 0.709735762  H
H     1.044321208 0.459602927 0.402072670  H
H     0.424500613 -0.038576615 0.384198710  H
H     0.592293669 0.556509222 0.258415739  H
C     -0.001270565 0.540901186 0.633921344  C
C     -0.035060014 0.520855280 0.314632054  C
C     0.464496899 0.466505790 0.367647386  C
C     0.531186460 0.536451492 0.618374156  C
H     0.035214951 0.588605670 0.623940776  H
H     -0.031880797 0.550094222 0.266475177  H
H     0.416148838 0.454726333 0.375567772  H
H     0.543668128 0.584698629 0.610075434  H
H     0.523598555 0.732558222 0.024979503  H
H     0.522254692 0.793949998 0.018149987  H
H     0.275927060 0.481757123 0.030067309  H
H     0.214794574 0.482904237 0.044856851  H
H     0.254757154 0.784654279 -0.025600787  H
