data_I
_chemical_name_common  'KAXQIL'
_cell_length_a  4.61897
_cell_length_b 12.91013
_cell_length_c 23.34800
_cell_angle_alpha 106.34133
_cell_angle_beta  89.99971
_cell_angle_gamma 89.99880


_symmetry_space_group_name_H-M    'P 1'
_symmetry_int_tables_number       1
_space_group_name_H-M_alt      'P 1'


loop_
_space_group_symop_operation_xyz
  'x, y, z' 

loop_
_atom_site_label
_atom_site_fract_x
_atom_site_fract_y
_atom_site_fract_z
_atom_site_type_symbol
Ca    0.816431674 0.608291556 0.724750557 Ca
Ca    0.316430768 0.891696487 0.775248158 Ca
Ca    0.183563659 0.391706433 0.275250112 Ca
Ca    0.683567039 0.108306743 0.224751089 Ca
H     0.346415030 0.126473295 0.588763311  H
H     0.182173601 0.217660218 0.377902738  H
H     0.620476701 0.434385801 0.563488694  H
H     0.613178808 0.324483482 0.679998570  H
H     0.476772824 0.181748289 0.722277772  H
H     0.239931401 -0.004906189 0.642347819  H
H     0.328487967 0.214710332 0.480481153  H
H     0.450320853 0.420603740 0.459389650  H
H     0.846422807 0.373515918 0.911233880  H
H     0.682175550 0.282347369 0.122096130  H
H     0.120487325 0.065606857 0.936511681  H
H     0.113185722 0.175502530 0.819998847  H
H     0.976772092 0.318237605 0.777719734  H
H     0.739935272 0.504895217 0.857649296  H
H     0.828496747 0.285286249 1.019516262  H
H     0.950331656 0.079397689 0.040611241  H
H     0.653584343 0.873527785 0.411235291  H
H     0.817826762 0.782342493 0.622098472  H
H     0.379523896 0.565613439 0.436509267  H
H     0.386821837 0.675516262 0.320001732  H
H     0.523224901 0.818254258 0.277722116  H
H     0.760066708 1.004906888 0.357651419  H
H     0.671517096 0.785285918 0.519518858  H
H     0.549675972 0.579396211 0.540608854  H
H     0.153574961 0.626485180 0.088767384  H
H     0.317817713 0.717649242 0.877903479  H
H     0.879515784 0.934393238 0.063489743  H
H     0.886817039 0.824497896 0.180001580  H
H     0.023222317 0.681759230 0.222280607  H
H     0.260060134 0.495103869 0.142350641  H
H     0.171506702 0.714717396 -0.019515653  H
H     0.049663984 0.920602238 0.959389360  H
C     0.776201863 -0.008595753 0.710692417  C
C     0.699500737 0.314198569 0.351504673  C
C     0.977242241 0.324953088 0.527942595  C
C     0.979992800 0.232787088 0.630587974  C
C     0.159776207 0.139300974 0.618795529  C
C     0.050064739 0.259310007 0.418238254  C
C     0.796474064 0.311878018 0.412003990  C
C     0.734448303 0.383043882 0.522456113  C
C     0.739761813 0.248844295 0.668296210  C
C     0.657581789 0.166368722 0.690598586  C
C     0.085560314 0.060817567 0.644778051  C
C     0.144611780 0.263841892 0.476326641  C
C     0.836234517 0.072900852 0.679553796  C
C     0.633326585 0.372386313 0.464422903  C
C     0.276202387 0.508584603 0.789305885  C
C     0.199500813 0.185810058 0.148496298  C
C     0.477251460 0.175041086 0.972057514  C
C     0.479998981 0.267200907 0.869409606  C
C     0.659783255 0.360687730 0.881201505  C
C     0.550068163 0.240694181 0.081761480  C
C     0.296478068 0.188125060 0.087996840  C
C     0.234460209 0.116951901 0.977543987  C
C     0.239769338 0.251141765 0.831700311  C
C     0.157586783 0.333617730 0.809398095  C
C     0.585563754 0.439170534 0.855218934  C
C     0.644619859 0.236157008 0.023672643  C
C     0.336236181 0.427086596 0.820443780  C
C     0.133333418 0.127615523 0.035577537  C
C     0.223799706 1.008595415 0.289306904  C
C     0.300497008 0.685798299 0.648494451  C
C     0.022761389 0.675050860 0.472056963  C
C     0.020004552 0.767214319 0.369411543  C
C     0.840222766 0.860702396 0.381203827  C
C     0.949935621 0.740687458 0.581762461  C
C     0.203528988 0.688120781 0.587994895  C
C     0.265544570 0.616953615 0.477541216  C
C     0.260238646 0.751156208 0.331704355  C
C     0.342419233 0.833631067 0.309401400  C
C     0.914446374 0.939185482 0.355221602  C
C     0.855394629 0.736157525 0.523674192  C
C     0.163766152 0.927098088 0.320444969  C
C     0.366679292 0.627615890 0.535574805  C
C     0.723799775 0.491414123 0.210694003  C
C     0.800490850 0.814191416 0.851504160  C
C     0.522750093 0.824955766 0.027943252  C
C     0.520000268 0.732797407 0.130591136  C
C     0.340213712 0.639310667 0.118799482  C
C     0.449925741 0.759307728 0.918237834  C
C     0.703523190 0.811875918 0.912004294  C
C     0.765533267 0.883049596 0.022458387  C
C     0.760231526 0.748857236 0.168298848  C
C     0.842414192 0.666382268 0.190601916  C
C     0.414439952 0.560826709 0.144781069  C
C     0.355384366 0.763843318 0.976327325  C
C     0.663763030 0.572913514 0.179556978  C
C     0.866669345 0.872381875 0.964424486  C
S     1.098806871 0.337830485 0.603045412  S
S     0.598815331 0.162157626 0.896952871  S
S     -0.098812471 0.662171380 0.396954442  S
S     0.401181032 0.837841915 0.103047978  S
O     0.996530651 0.445549442 0.645808348  O
O     0.862462625 0.268293951 0.304043044  O
O     0.409655632 0.315738509 0.594242236  O
O     0.554473827 0.930036804 0.694414585  O
O     0.956118651 0.990918161 0.751726030  O
O     0.465786333 0.363794368 0.350525528  O
O     0.496538431 0.054438134 0.854191175  O
O     0.362462258 0.231718240 0.195957646  O
O     0.909664637 0.184249683 0.905755879  O
O     0.054468900 0.569953258 0.805584660  O
O     0.456114954 0.509069338 0.748272106  O
O     -0.034214984 0.136215002 0.149475602  O
O     0.003472269 0.554452066 0.354192030  O
O     0.137548894 0.731703765 0.695957437  O
O     0.590337548 0.684264366 0.405757991  O
O     0.445538156 0.069962873 0.305585397  O
O     0.043881057 0.009082666 0.248273987  O
O     0.534216974 0.636207163 0.649473936  O
O     0.503468714 0.945562552 0.145809021  O
O     0.637539928 0.768283659 0.804041861  O
O     0.090330762 0.815750264 0.094245186  O
O     0.945536331 0.430047633 0.194415386  O
O     0.543878986 0.490929036 0.251727487  O
O     1.034211406 0.863781357 0.850523994  O
