data_I
_chemical_name_common  'OLEYAH'
_cell_length_a 14.49119
_cell_length_b 14.49075
_cell_length_c 14.49078
_cell_angle_alpha 107.07590
_cell_angle_beta  107.08126
_cell_angle_gamma 107.08197


_symmetry_space_group_name_H-M    'P 1'
_symmetry_int_tables_number       1
_space_group_name_H-M_alt      'P 1'


loop_
_space_group_symop_operation_xyz
  'x, y, z' 

loop_
_atom_site_label
_atom_site_fract_x
_atom_site_fract_y
_atom_site_fract_z
_atom_site_type_symbol
Zn    0.750001273 0.177005739 0.322977401 Zn
Zn    0.250003875 0.823001807 0.677035493 Zn
Zn    0.323010440 0.749997024 0.177041364 Zn
Zn    0.676982503 0.250002298 0.822947261 Zn
Zn    0.176990137 0.322963769 0.750001768 Zn
Zn    0.823006246 0.677035932 0.249994825 Zn
Zn    0.750001701 0.309317002 0.190678391 Zn
Zn    0.249994986 0.690678261 0.809322922 Zn
Zn    0.190674803 0.750013666 0.309313176 Zn
Zn    0.809327361 0.249990976 0.690688158 Zn
Zn    0.309322394 0.190690454 0.749988465 Zn
Zn    0.690677600 0.809309451 0.250009929 Zn
H     0.528922336 1.007074316 0.179050924  H
H     0.471078847 -0.007074393 0.820948482  H
H     0.179047103 0.528897805 1.007088281  H
H     0.820952328 0.471101572 -0.007089652  H
H     1.007080100 0.179055655 0.528928957  H
H     -0.007079061 0.820944987 0.471072065  H
H     0.320951865 0.492914005 0.971096591  H
H     0.679047179 0.507087060 0.028904096  H
H     0.492923128 0.971072948 0.320946655  H
H     0.507075594 0.028925666 0.679052714  H
H     0.971088269 0.320950343 0.492926899  H
H     0.028911784 0.679050800 0.507073706  H
C     0.587539192 0.085881359 0.090932633  C
C     0.412462688 0.914118438 0.909068249  C
C     0.090939475 0.587535057 0.085887162  C
C     0.909059632 0.412463531 0.914111672  C
C     0.085882374 0.090933571 0.587536557  C
C     0.914118801 0.909067067 0.412464844  C
C     0.409061023 0.414116198 0.912462472  C
C     0.590937869 0.585884299 0.087537901  C
C     0.414116361 0.912465072 0.409067982  C
C     0.585882159 0.087532882 0.590930632  C
C     0.912466435 0.409061722 0.414114264  C
C     0.087534604 0.590939135 0.585886568  C
C     0.570811886 0.082013853 0.987862639  C
C     0.429189648 0.917985777 0.012136963  C
C     0.987869320 0.570815313 0.082008209  C
C     0.012130038 0.429182643 0.917991606  C
C     0.082011936 0.987863702 0.570807194  C
C     0.917988787 0.012136618 0.429194664  C
C     0.512130464 0.417992723 0.929183963  C
C     0.487869010 0.582008103 0.070816566  C
C     0.417984720 0.929192007 0.512136613  C
C     0.582014108 0.070805489 0.487862683  C
C     0.929191833 0.512132810 0.417983286  C
C     0.070809708 0.487867966 0.582016462  C
C     0.516437806 1.003714757 0.100161194  C
C     0.483563068 -0.003715504 0.899838039  C
C     0.100159733 0.516425077 1.003724485  C
C     0.899839932 0.483573160 -0.003724822  C
C     1.003717133 0.100163890 0.516440955  C
C     -0.003716603 0.899836383 0.483560853  C
C     0.399839683 0.496278114 0.983571744  C
C     0.600159401 0.503722580 0.016428787  C
C     0.496284009 0.983560557 0.399837374  C
C     0.503715159 0.016437528 0.600162223  C
C     0.983567199 0.399839060 0.496284332  C
C     0.016434221 0.600162170 0.503715972  C
C     0.663724968 0.140671562 0.466524152  C
C     0.336273788 0.859327305 0.533476355  C
C     0.466526219 0.663710809 0.140681024  C
C     0.533475215 0.336291097 0.859319968  C
C     0.140664995 0.466521697 0.663727560  C
C     0.859333658 0.533475220 0.336269600  C
C     0.033475442 0.359320633 0.836289029  C
C     0.966524495 0.640678824 0.163710586  C
C     0.359330103 0.836274517 0.033481703  C
C     0.640671730 0.163727134 0.966518001  C
C     0.836281764 0.033474587 0.359327254  C
C     0.163719673 0.966526133 0.640673955  C
O     0.755904284 0.209370126 0.538379827  O
O     0.244095150 0.790629402 0.461620327  O
O     0.538376319 0.755891486 0.209389463  O
O     0.461625491 0.244110426 0.790609753  O
O     0.209366523 0.538373485 0.755908913  O
O     0.790634496 0.461621674 0.244089621  O
O     0.961628149 0.290613048 0.744108041  O
O     0.038372999 0.709386401 0.255892205  O
O     0.290622298 0.744095550 0.961628458  O
O     0.709377443 0.255903680 0.038372747  O
O     0.744102696 0.961618136 0.290627129  O
O     0.255897659 0.038382390 0.709374803  O
O     0.639179068 0.127979626 0.370136737  O
O     0.360819700 0.872020366 0.629864432  O
O     0.370137531 0.639161352 0.127979057  O
O     0.629864374 0.360841240 0.872023706  O
O     0.127961325 0.370131378 0.639183233  O
O     0.872033867 0.629865186 0.360812303  O
O     0.129864498 0.372024300 0.860839116  O
O     0.870136220 0.627977177 0.139160298  O
O     0.372037461 0.860816931 0.129872514  O
O     0.627964105 0.139185862 0.870127000  O
O     0.860829315 0.129862084 0.372017867  O
O     0.139173119 0.870137669 0.627981754  O
O     0.669352478 0.165857233 0.179073911  O
O     0.330647229 0.834139984 0.820929277  O
O     0.179083068 0.669346591 0.165865084  O
O     0.820915899 0.330654751 0.834131408  O
O     0.165860756 0.179074121 0.669350232  O
O     0.834141388 0.820926828 0.330649158  O
O     0.320918062 0.334139989 0.830649158  O
O     0.679080605 0.665860587 0.169351058  O
O     0.334137255 0.830652971 0.320926737  O
O     0.665861563 0.169347414 0.679069712  O
O     0.830657062 0.320917959 0.334136167  O
O     0.169342895 0.679082828 0.665867811  O
