data_I
_chemical_name_common  'ORIVUI'
_cell_length_a  6.87040
_cell_length_b 15.50394
_cell_length_c 15.50154
_cell_angle_alpha 62.18072
_cell_angle_beta  81.47633
_cell_angle_gamma 98.47225


_symmetry_space_group_name_H-M    'P 1'
_symmetry_int_tables_number       1
_space_group_name_H-M_alt      'P 1'


loop_
_space_group_symop_operation_xyz
  'x, y, z' 

loop_
_atom_site_label
_atom_site_fract_x
_atom_site_fract_y
_atom_site_fract_z
_atom_site_type_symbol
Ni    0.299021148 0.264728857 0.312358496 Ni
Ni    0.614067967 0.312702220 0.420608274 Ni
Ni    0.038580980 0.421219621 0.262917366 Ni
Ni    0.698586920 0.734664793 0.686006175 Ni
Ni    0.387377052 0.686803861 0.581314452 Ni
Ni    0.963920216 0.580814859 0.734932602 Ni
H     0.318130456 0.467059863 0.550415251  H
H     0.868555474 0.550342175 0.982562490  H
H     0.851062482 0.982493877 0.467139605  H
H     0.681826422 0.532857144 0.449667282  H
H     0.131451574 0.449594685 0.017525309  H
H     0.148944832 0.017460325 0.532942008  H
C     0.240984456 0.387291248 0.437381582  C
C     0.113630308 0.446770846 0.465247088  C
C     0.930312526 0.466185711 0.433700590  C
C     0.166874626 0.482326409 0.527110642  C
C     0.678294717 0.437329671 0.175232969  C
C     0.578985547 0.465219570 0.088022456  C
C     0.363847906 0.433572470 0.100265779  C
C     0.693860824 0.527011606 0.990726981  C
C     0.853736554 0.175229615 0.387381931  C
C     0.666665008 0.087952341 0.446855783  C
C     0.464116734 0.100050337 0.466219039  C
C     0.684472570 0.990513160 0.482394015  C
C     0.758841507 0.612685399 0.562708784  C
C     0.886419166 0.553111567 0.534883095  C
C     0.069815685 0.533832111 0.566329905  C
C     0.833145609 0.517606930 0.472867951  C
C     0.321619113 0.562609756 0.824799613  C
C     0.420943540 0.534712275 0.912074199  C
C     0.636068580 0.566363790 0.899759150  C
C     0.306079354 0.472903827 0.009474259  C
C     0.146394223 0.824669777 0.612690249  C
C     0.333192099 0.912003994 0.553206210  C
C     0.535765918 0.899871165 0.533872156  C
C     0.315624116 0.009495147 0.517633610  C
O     0.184431824 0.355582587 0.377536395  O
O     0.397417774 0.367440338 0.474801330  O
O     0.852346252 0.439758686 0.369517833  O
O     0.561647899 0.377440365 0.266652139  O
O     0.871154182 0.474178568 0.158326899  O
O     0.222829912 0.369871349 0.190440365  O
O     0.829270910 0.266818379 0.355463149  O
O     0.029729947 0.158431546 0.367386820  O
O     0.412074268 0.190377674 0.439671699  O
O     0.815063612 0.644512431 0.622280133  O
O     0.602661744 0.632631684 0.525684375  O
O     0.148098562 0.560315025 0.630196951  O
O     0.437754579 0.622318199 0.733633827  O
O     0.128612637 0.525509611 0.842062472  O
O     0.777016867 0.630196954 0.809722850  O
O     0.171361663 0.733600125 0.644130417  O
O     0.970619872 0.841518800 0.632639373  O
O     0.586691285 0.809436677 0.560625624  O
