data_I
_chemical_name_common  'ORIVOC'
_cell_length_a  6.90984
_cell_length_b 15.22482
_cell_length_c 15.22407
_cell_angle_alpha 62.24470
_cell_angle_beta  81.29832
_cell_angle_gamma 98.70088


_symmetry_space_group_name_H-M    'P 1'
_symmetry_int_tables_number       1
_space_group_name_H-M_alt      'P 1'


loop_
_space_group_symop_operation_xyz
  'x, y, z' 

loop_
_atom_site_label
_atom_site_fract_x
_atom_site_fract_y
_atom_site_fract_z
_atom_site_type_symbol
Zn    0.283519278 0.264661852 0.327574734 Zn
Zn    0.611096473 0.327552313 0.407768162 Zn
Zn    0.018873289 0.407759953 0.264678284 Zn
Zn    0.716476619 0.735334128 0.672425284 Zn
Zn    0.388901209 0.672448256 0.592233574 Zn
Zn    0.981128530 0.592242840 0.735318736 Zn
H     0.313351224 0.469258318 0.555246107  H
H     0.868597354 0.555241897 0.975480479  H
H     0.844099714 0.975500766 0.469265991  H
H     0.686649187 0.530741836 0.444754005  H
H     0.131403285 0.444758268 0.024519638  H
H     0.155900525 0.024499300 0.530734354  H
C     0.248347770 0.392480247 0.436444163  C
C     0.116881342 0.447969734 0.466593981  C
C     0.936249742 0.464861913 0.433992298  C
C     0.175104282 0.483002373 0.531253847  C
C     0.684814652 0.436444393 0.171076562  C
C     0.583492923 0.466597348 0.085435589  C
C     0.370264552 0.433993954 0.101150169  C
C     0.706357335 0.531253096 0.985736365  C
C     0.855856136 0.171073971 0.392493417  C
C     0.668905891 0.085435147 0.447975252  C
C     0.471380669 0.101139910 0.464866738  C
C     0.692105245 0.985745612 0.483006477  C
C     0.751652010 0.607519461 0.563555553  C
C     0.883118974 0.552030110 0.533405791  C
C     0.063750933 0.535138102 0.566007411  C
C     0.824896069 0.516997493 0.468745962  C
C     0.315184516 0.563555476 0.828923982  C
C     0.416507413 0.533402752 0.914564688  C
C     0.629736266 0.566006009 0.898849913  C
C     0.293643137 0.468747003 0.014263932  C
C     0.144142518 0.828926501 0.607506598  C
C     0.331093956 0.914565201 0.552025075  C
C     0.528619463 0.898860376 0.535133506  C
C     0.307894778 0.014254755 0.516993806  C
O     0.194815269 0.359076188 0.378230996  O
O     0.407666336 0.380223745 0.468139156  O
O     0.865829756 0.433989923 0.371681117  O
O     0.573062430 0.378235958 0.262695451  O
O     0.875829107 0.468132306 0.151633326  O
O     0.237541606 0.371677217 0.194338931  O
O     0.835732281 0.262689062 0.359087910  O
O     0.027425861 0.151629930 0.380246402  O
O     0.431834892 0.194321795 0.433998828  O
O     0.805186536 0.640923187 0.621768566  O
O     0.592333244 0.619776525 0.531861602  O
O     0.134171344 0.566010050 0.628318328  O
O     0.426937553 0.621763597 0.737305176  O
O     0.124170997 0.531868564 0.848365987  O
O     0.762458926 0.628322200 0.805661467  O
O     0.164269515 0.737311828 0.640911724  O
O     0.972572129 0.848368495 0.619753979  O
O     0.568164961 0.805678764 0.566000631  O
