data_I
_chemical_name_common  'RUBTAK'
_cell_length_a 14.77066
_cell_length_b 14.77083
_cell_length_c 14.77005
_cell_angle_alpha 60.00035
_cell_angle_beta  59.99974
_cell_angle_gamma 59.99784


_symmetry_space_group_name_H-M    'P 1'
_symmetry_int_tables_number       1
_space_group_name_H-M_alt      'P 1'


loop_
_space_group_symop_operation_xyz
  'x, y, z' 

loop_
_atom_site_label
_atom_site_fract_x
_atom_site_fract_y
_atom_site_fract_z
_atom_site_type_symbol
Zr    0.380539445 0.380378313 0.619387853 Zr
Zr    0.619974191 0.619283202 0.380345347 Zr
Zr    0.380708485 0.619443005 0.619415454 Zr
Zr    0.619853174 0.380163422 0.380308580 Zr
Zr    0.380808382 0.619474634 0.380135326 Zr
Zr    0.619786095 0.380112647 0.619535367 Zr
C     0.054255853 0.574954575 0.959933497  C
C     0.575368470 0.053987855 0.410600667  C
C     0.960369766 0.410508226 0.053991440  C
C     0.411164307 0.959803421 0.574911678  C
C     0.054474802 0.959824610 0.410567523  C
C     0.575427730 0.410550610 0.959813098  C
C     0.960277393 0.053844356 0.574964073  C
C     0.411171692 0.574846805 0.053948090  C
C     0.054558960 0.410666393 0.574812936  C
C     0.575474230 0.959892669 0.053836215  C
C     0.960183994 0.574762758 0.410689221  C
C     0.411008497 0.053868240 0.959965774  C
C     0.411177848 0.959723698 0.054032585  C
C     0.960469050 0.410474887 0.574961203  C
C     0.575309478 0.054034653 0.959764016  C
C     0.054273792 0.574953343 0.410539618  C
C     0.054497730 0.959836413 0.574849277  C
C     0.575504903 0.410582310 0.053872400  C
C     0.960253641 0.053833062 0.410682954  C
C     0.411094402 0.574815971 0.959890273  C
C     0.575471094 0.959802228 0.410647300  C
C     0.054389105 0.410676548 0.959788347  C
C     0.411055792 0.053988821 0.574864955  C
C     0.960239892 0.574787414 0.054137382  C
C     0.200376160 0.495649261 0.808288127  C
C     0.101425234 0.493347593 0.911763778  C
C     0.495731883 0.200213639 0.495368106  C
C     0.493611523 0.101166371 0.493164154  C
C     0.808932582 0.495153096 0.200295399  C
C     0.912303298 0.493023788 0.101245909  C
C     0.496067549 0.808259985 0.495494739  C
C     0.493819306 0.911717411 0.493254461  C
C     0.200713758 0.808452843 0.495283440  C
C     0.101669742 0.911827451 0.493116139  C
C     0.495836641 0.495349748 0.808428803  C
C     0.493682728 0.493130523 0.911825484  C
C     0.808662316 0.199850141 0.495638384  C
C     0.912161551 0.100921468 0.493338451  C
C     0.496061978 0.495442810 0.199988191  C
C     0.493830730 0.493188944 0.101020356  C
C     0.200540986 0.495661970 0.495196112  C
C     0.101551525 0.493350893 0.493058476  C
C     0.496131810 0.808322449 0.200064276  C
C     0.493851665 0.911746721 0.101066742  C
C     0.808879148 0.495090556 0.495633810  C
C     0.912291574 0.492979589 0.493345421  C
C     0.495608387 0.200156167 0.808457648  C
C     0.493524511 0.101118488 0.911839969  C
O     0.298171027 0.567340432 0.567088822  O
O     0.567456102 0.297719689 0.567291625  O
O     0.567770082 0.567129657 0.297766490  O
O     0.567677468 0.567065797 0.567296046  O
O     0.450740896 0.648699443 0.450204041  O
O     0.649143893 0.450053538 0.450338787  O
O     0.450543122 0.450238989 0.648749398  O
O     0.450631287 0.450267081 0.450157818  O
O     0.238385976 0.420329970 0.767335183  O
O     0.420330400 0.238285774 0.573558527  O
O     0.768046611 0.573348039 0.238367058  O
O     0.574317932 0.767311662 0.420173288  O
O     0.238747317 0.767573713 0.573506685  O
O     0.420473581 0.573594818 0.767540204  O
O     0.767763672 0.237897879 0.420275609  O
O     0.574250195 0.420056755 0.238068389  O
O     0.238598169 0.573846736 0.419809839  O
O     0.420759822 0.767442141 0.238107309  O
O     0.768010598 0.419718926 0.573837372  O
O     0.573810746 0.238209810 0.767566977  O
O     0.574342645 0.767421449 0.238117156  O
O     0.767967996 0.573302411 0.420278523  O
O     0.420220302 0.238214153 0.767586978  O
O     0.238567901 0.420326720 0.573434570  O
O     0.238777681 0.767572285 0.419899200  O
O     0.420725375 0.573710101 0.237980500  O
O     0.767736269 0.237854404 0.573895486  O
O     0.574025186 0.419962028 0.767545800  O
O     0.420667591 0.767413287 0.573681230  O
O     0.238440037 0.573832832 0.767433091  O
O     0.573950379 0.238246819 0.420016225  O
O     0.768058585 0.419784441 0.238328642  O
H     0.092182032 0.638168762 0.921828430  H
H     0.638471740 0.092061072 0.347553342  H
H     0.922320184 0.347405372 0.092017530  H
H     0.348167717 0.921628885 0.638066606  H
H     0.092554227 0.921714228 0.347492661  H
H     0.638549773 0.347511741 0.921659268  H
H     0.922108414 0.091865322 0.638127443  H
H     0.348148365 0.637974800 0.092009975  H
H     0.092711771 0.347714248 0.637884352  H
H     0.638692422 0.921817344 0.091763846  H
H     0.921917422 0.637813515 0.347726045  H
H     0.347899259 0.091838090 0.921928797  H
H     0.348214425 0.921487204 0.092134889  H
H     0.922467730 0.347353192 0.638153790  H
H     0.638392867 0.092152868 0.921543744  H
H     0.092164712 0.638180851 0.347440529  H
H     0.092598584 0.921733782 0.637933065  H
H     0.638688401 0.347562106 0.091861374  H
H     0.922068682 0.091840185 0.347685071  H
H     0.348011757 0.637924030 0.921798274  H
H     0.638664353 0.921634678 0.347637070  H
H     0.092440791 0.347710113 0.921553691  H
H     0.347968029 0.092064807 0.637968659  H
H     0.922069469 0.637840395 0.092297275  H
H     0.217987871 0.594132924 0.593793417  H
H     0.594065203 0.217539727 0.594091689  H
H     0.594334185 0.593797165 0.594086624  H
H     0.594471997 0.593883817 0.217586855  H
