data_I
_chemical_name_common  'SAHYIK'
_cell_length_a 18.41929
_cell_length_b 18.41929
_cell_length_c 18.41927
_cell_angle_alpha 59.99994
_cell_angle_beta  59.99995
_cell_angle_gamma 59.99998


_symmetry_space_group_name_H-M    'P 1'
_symmetry_int_tables_number       1
_space_group_name_H-M_alt      'P 1'


loop_
_space_group_symop_operation_xyz
  'x, y, z' 

loop_
_atom_site_label
_atom_site_fract_x
_atom_site_fract_y
_atom_site_fract_z
_atom_site_type_symbol
Zn    0.793449601 0.793450385 0.793451998 Zn
Zn    0.793450371 0.793451090 0.619648732 Zn
Zn    0.793450039 0.619648296 0.793452123 Zn
Zn    0.619648093 0.793450490 0.793452035 Zn
Zn    0.206550361 0.206549613 0.206548007 Zn
Zn    0.206549607 0.206548890 0.380351299 Zn
Zn    0.380351843 0.206549515 0.206547996 Zn
Zn    0.206549934 0.380351687 0.206547915 Zn
H     0.951821797 0.951821801 0.664698430  H
H     0.951821721 0.951821715 0.431658087  H
H     0.664698549 0.431658129 0.951821692  H
H     0.431658077 0.664698536 0.951821724  H
H     0.951821874 0.664698234 0.431658018  H
H     0.951821918 0.431657994 0.664698170  H
H     0.664698414 0.951821640 0.951821715  H
H     0.431658207 0.951821631 0.951821712  H
H     0.951821615 0.431658173 0.951821673  H
H     0.951821654 0.664698503 0.951821720  H
H     0.664698346 0.951821785 0.431658072  H
H     0.431658016 0.951821882 0.664698204  H
H     0.048178221 0.048178206 0.335301560  H
H     0.048178301 0.048178291 0.568341895  H
H     0.568341931 0.335301472 0.048178274  H
H     0.335301452 0.568341887 0.048178306  H
H     0.335301654 0.048178214 0.568341917  H
H     0.568341987 0.048178116 0.335301784  H
H     0.048178331 0.335301511 0.048178280  H
H     0.048178367 0.568341845 0.048178325  H
H     0.568341796 0.048178351 0.048178301  H
H     0.335301587 0.048178342 0.048178298  H
H     0.048178124 0.335301737 0.568342013  H
H     0.048178081 0.568341977 0.335301860  H
C     0.888830126 0.888830228 0.611168672  C
C     0.611169971 0.611169502 0.888830569  C
C     0.888830057 0.611170547 0.611169406  C
C     0.611169572 0.888830178 0.888830584  C
C     0.888830049 0.611169410 0.888830566  C
C     0.611170592 0.888830172 0.611169200  C
C     0.111169899 0.111169784 0.388831293  C
C     0.388830068 0.388830485 0.111169425  C
C     0.388829461 0.111169829 0.388830727  C
C     0.111169932 0.388830641 0.111169433  C
C     0.388830464 0.111169811 0.111169413  C
C     0.111169951 0.388829484 0.388830553  C
C     0.973314875 0.973314850 0.592543092  C
C     0.973314604 0.973314573 0.460828711  C
C     0.592542287 0.460827907 0.973314893  C
C     0.460827512 0.592542541 0.973314966  C
C     0.973313859 0.592543091 0.460829179  C
C     0.973313979 0.460828151 0.592543880  C
C     0.592542810 0.973314732 0.973314759  C
C     0.460828035 0.973314711 0.973314740  C
C     0.973314870 0.460828103 0.973314855  C
C     0.973314958 0.592542717 0.973314959  C
C     0.592542672 0.973314034 0.460829212  C
C     0.460827704 0.973314250 0.592543751  C
C     0.026685144 0.026685156 0.407456892  C
C     0.026685412 0.026685428 0.539171274  C
C     0.539172490 0.407457465 0.026685036  C
C     0.407457716 0.539172103 0.026685106  C
C     0.407457341 0.026685962 0.539170772  C
C     0.539172300 0.026685752 0.407456228  C
C     0.026685022 0.407457313 0.026685035  C
C     0.026685119 0.539171917 0.026685149  C
C     0.539171968 0.026685271 0.026685274  C
C     0.407457195 0.026685249 0.026685254  C
C     0.026686138 0.407456893 0.539170845  C
C     0.026686025 0.539171824 0.407456138  C
C     0.946303638 0.946303614 0.553696069  C
C     0.553696402 0.553696244 0.946303724  C
C     0.946303860 0.553696464 0.553695807  C
C     0.553695996 0.946303792 0.946303912  C
C     0.946303675 0.553696070 0.946303765  C
C     0.553696634 0.946303796 0.553695723  C
C     0.053696376 0.053696386 0.446303926  C
C     0.446303595 0.446303767 0.053696279  C
C     0.446303363 0.053696201 0.446304272  C
C     0.053696310 0.446303936 0.053696236  C
C     0.446304001 0.053696194 0.053696101  C
C     0.053696141 0.446303504 0.446304226  C
O     0.750000360 0.749999900 0.749999038  O
O     0.249999663 0.250000127 0.250000909  O
O     0.866718454 0.866718610 0.694991154  O
O     0.866719286 0.866719384 0.571572870  O
O     0.694989202 0.571572575 0.866719342  O
O     0.571572184 0.694989868 0.866719209  O
O     0.866719188 0.694989401 0.571572296  O
O     0.866718776 0.571571987 0.694990552  O
O     0.694989402 0.866718949 0.866719145  O
O     0.571572536 0.866718976 0.866719204  O
O     0.866718986 0.571572634 0.866719329  O
O     0.866718728 0.694989893 0.866719112  O
O     0.694988998 0.866719272 0.571572589  O
O     0.571571903 0.866718762 0.694990775  O
O     0.133281555 0.133281399 0.305008850  O
O     0.133280740 0.133280618 0.428427113  O
O     0.428427813 0.305010162 0.133280778  O
O     0.305010772 0.428427463 0.133280663  O
O     0.305010976 0.133280735 0.428427411  O
O     0.428428081 0.133281223 0.305009251  O
O     0.133281258 0.305010097 0.133280887  O
O     0.133280997 0.428427359 0.133280673  O
O     0.428427467 0.133281009 0.133280787  O
O     0.305010579 0.133281062 0.133280851  O
O     0.133280838 0.305010560 0.428427703  O
O     0.133281213 0.428428002 0.305009490  O
