data_I
_chemical_name_common  'UPOZAB'
_cell_length_a 22.09850
_cell_length_b 22.09851
_cell_length_c 22.09851
_cell_angle_alpha 59.99998
_cell_angle_beta  59.99998
_cell_angle_gamma 59.99998


_symmetry_space_group_name_H-M    'P 1'
_symmetry_int_tables_number       1
_space_group_name_H-M_alt      'P 1'


loop_
_space_group_symop_operation_xyz
  'x, y, z' 

loop_
_atom_site_label
_atom_site_fract_x
_atom_site_fract_y
_atom_site_fract_z
_atom_site_type_symbol
Zn    0.183870528 0.448386635 0.183871502 Zn
Zn    0.448385500 0.183871396 0.183871646 Zn
Zn    0.183870606 0.183871316 0.183871387 Zn
Zn    0.183870792 0.183871458 0.448386381 Zn
Zn    0.551614440 0.816128627 0.816128358 Zn
Zn    0.816129480 0.551613369 0.816128474 Zn
Zn    0.816129387 0.816128674 0.816128608 Zn
Zn    0.816129194 0.816128557 0.551613598 Zn
Zn    0.249999525 0.250000111 0.250000162 Zn
Zn    0.750000456 0.749999854 0.749999897 Zn
H     0.074785774 0.540034888 0.310393449  H
H     0.540034427 0.074785909 0.074785953  H
H     0.310393511 0.074785548 0.074785633  H
H     0.074785736 0.310393495 0.540034889  H
H     0.074785628 0.310393533 0.074785841  H
H     0.540034575 0.074786011 0.310393427  H
H     0.310393337 0.074785645 0.540035356  H
H     0.074785673 0.540034787 0.074785840  H
H     0.074785713 0.074785804 0.540034959  H
H     0.540034643 0.310393551 0.074785947  H
H     0.310393454 0.540035383 0.074785604  H
H     0.074785683 0.074785849 0.310393415  H
H     0.459965712 0.925213976 0.689606288  H
H     0.925214339 0.459965211 0.925214168  H
H     0.925214370 0.689606395 0.925214172  H
H     0.689606432 0.925214370 0.459964868  H
H     0.689606609 0.925214427 0.925214364  H
H     0.925214237 0.459965274 0.689606396  H
H     0.925214277 0.689606390 0.459965208  H
H     0.459965586 0.925214088 0.925214060  H
H     0.925214311 0.925214185 0.459965254  H
H     0.689606576 0.459964613 0.925214391  H
H     0.459965352 0.689606464 0.925214059  H
H     0.925214293 0.925214143 0.689606437  H
C     0.113468301 0.418566832 0.354496618  C
C     0.075282625 0.490264329 0.359170485  C
C     0.037864994 0.494461399 0.429808668  C
C     0.418566327 0.113468230 0.113468230  C
C     0.490263945 0.075282658 0.075282776  C
C     0.494461143 0.037864835 0.037865038  C
C     0.354496569 0.113467885 0.113467977  C
C     0.359169781 0.075282761 0.075282952  C
C     0.429809143 0.037864554 0.037864764  C
C     0.113467780 0.354496929 0.418567495  C
C     0.075283032 0.359170311 0.490263634  C
C     0.037864823 0.429809047 0.494461349  C
C     0.113467740 0.354496951 0.113467777  C
C     0.075282850 0.359170246 0.075283007  C
C     0.037864714 0.429809037 0.037864865  C
C     0.418566677 0.113468242 0.354496849  C
C     0.490263746 0.075282737 0.359170814  C
C     0.494461307 0.037865060 0.429808575  C
C     0.354496480 0.113467713 0.418568014  C
C     0.359170203 0.075282952 0.490263855  C
C     0.429808812 0.037864802 0.494461585  C
C     0.113468270 0.418566667 0.113468207  C
C     0.075282546 0.490264393 0.075282619  C
C     0.037864782 0.494461362 0.037864923  C
C     0.113467742 0.113467682 0.418567536  C
C     0.075282846 0.075282787 0.490263719  C
C     0.037864865 0.037864793 0.494461480  C
C     0.418567083 0.354497127 0.113467892  C
C     0.490263386 0.359170659 0.075283057  C
C     0.494461292 0.429808845 0.037865033  C
C     0.354496300 0.418567437 0.113468124  C
C     0.359170265 0.490264479 0.075282699  C
C     0.429808649 0.494461646 0.037864954  C
C     0.113467924 0.113467892 0.354496761  C
C     0.075282669 0.075282659 0.359170515  C
C     0.037864898 0.037864847 0.429808715  C
C     0.581434257 0.886531414 0.645502886  C
C     0.509735424 0.924717293 0.640829932  C
C     0.505538935 0.962135166 0.570190729  C
C     0.886531689 0.581433451 0.886531748  C
C     0.924717535 0.509735504 0.924717456  C
C     0.962135181 0.505538699 0.962135040  C
C     0.886532226 0.645502972 0.886532203  C
C     0.924717095 0.640829994 0.924716956  C
C     0.962135396 0.570190734 0.962135256  C
C     0.645503221 0.886532037 0.581432790  C
C     0.640830418 0.924717074 0.509735483  C
C     0.570190593 0.962135384 0.505538657  C
C     0.645503452 0.886532223 0.886532138  C
C     0.640829923 0.924717237 0.924717058  C
C     0.570191123 0.962135312 0.962135121  C
C     0.886531626 0.581433563 0.645503161  C
C     0.924717320 0.509735349 0.640829978  C
C     0.962135197 0.505538706 0.570190862  C
C     0.886532023 0.645502983 0.581433018  C
C     0.924717092 0.640829939 0.509735886  C
C     0.962135207 0.570190740 0.505538807  C
C     0.581433647 0.886531737 0.886531748  C
C     0.509736021 0.924717314 0.924717211  C
C     0.505538810 0.962135197 0.962135015  C
C     0.886531919 0.886531984 0.581433274  C
C     0.924717286 0.924717329 0.509735555  C
C     0.962135252 0.962135301 0.505538751  C
C     0.645503738 0.581432565 0.886531863  C
C     0.640829656 0.509735551 0.924717336  C
C     0.570191441 0.505538374 0.962135003  C
C     0.581432853 0.645502881 0.886532138  C
C     0.509736670 0.640829368 0.924716907  C
C     0.505538695 0.570191147 0.962134986  C
C     0.886531963 0.886532009 0.645502949  C
C     0.924717241 0.924717270 0.640830047  C
C     0.962135296 0.962135344 0.570190761  C
N     0.155232990 0.394515118 0.295018720  N
N     0.394514511 0.155233248 0.155233030  N
N     0.295018073 0.155233084 0.155233038  N
N     0.155233070 0.295018574 0.394514987  N
N     0.155233106 0.295018531 0.155233101  N
N     0.394514532 0.155233159 0.295019055  N
N     0.295018091 0.155233068 0.394515490  N
N     0.155233103 0.394515074 0.155232900  N
N     0.155233044 0.155233069 0.394515034  N
N     0.394514516 0.295018954 0.155233093  N
N     0.295018185 0.394515654 0.155232895  N
N     0.155232939 0.155233013 0.295018692  N
N     0.605485271 0.844766938 0.704980931  N
N     0.844766926 0.605484880 0.844767121  N
N     0.844766905 0.704981453 0.844766933  N
N     0.704981886 0.844767011 0.605484383  N
N     0.704981937 0.844766860 0.844766925  N
N     0.844767053 0.605484814 0.704981266  N
N     0.844767012 0.704981408 0.605484893  N
N     0.605485462 0.844766747 0.844766996  N
N     0.844767058 0.844767026 0.605484801  N
N     0.704981809 0.605484369 0.844767109  N
N     0.605485490 0.704981062 0.844766904  N
N     0.844767099 0.844767021 0.704981318  N
N     0.179526586 0.320473281 0.320473159  N
N     0.320472638 0.179526822 0.179526590  N
N     0.179526734 0.320473209 0.179526590  N
N     0.320472687 0.179526689 0.320473654  N
N     0.179526564 0.179526667 0.320473217  N
N     0.320472657 0.320473770 0.179526504  N
N     0.679527229 0.820473378 0.679526294  N
N     0.820473287 0.679526746 0.820473433  N
N     0.679527346 0.820473145 0.820473411  N
N     0.820473464 0.679526721 0.679526755  N
N     0.820473497 0.820473376 0.679526690  N
N     0.679527345 0.679526249 0.820473493  N
Cl    0.143728750 0.568804840 0.143733039 Cl
Cl    0.568803807 0.143732082 0.143731914 Cl
Cl    0.143728712 0.143733207 0.143733164 Cl
Cl    0.143728726 0.143733180 0.568804640 Cl
Cl    0.431196127 0.856267952 0.856268114 Cl
Cl    0.856271246 0.431195185 0.856266940 Cl
Cl    0.856271260 0.856266774 0.856266831 Cl
Cl    0.856271273 0.856266834 0.431195352 Cl
O     -0.000000040 0.564080138 0.435919910  O
O     0.564080095 1.000000062 0.000000093  O
O     0.435919856 -0.000000059 -0.000000058  O
O     0.999999962 0.435919904 0.564080153  O
O     0.000000007 0.435919840 -0.000000017  O
O     0.564080115 1.000000024 0.435919853  O
O     0.435919992 -0.000000101 0.564080271  O
O     -0.000000013 0.564080193 0.000000014  O
O     -0.000000032 -0.000000072 0.564080182  O
O     0.564080114 0.435919768 0.000000065  O
O     0.435919873 0.564080242 -0.000000048  O
O     -0.000000021 -0.000000053 0.435919926  O
