data_I
_chemical_name_common  'UTEWOG'
_cell_length_a 18.55766
_cell_length_b 18.55765
_cell_length_c 18.55766
_cell_angle_alpha 90.00000
_cell_angle_beta  90.00000
_cell_angle_gamma 90.00000


_symmetry_space_group_name_H-M    'P 1'
_symmetry_int_tables_number       1
_space_group_name_H-M_alt      'P 1'


loop_
_space_group_symop_operation_xyz
  'x, y, z' 

loop_
_atom_site_label
_atom_site_fract_x
_atom_site_fract_y
_atom_site_fract_z
_atom_site_type_symbol
Ni    -0.000000255 0.624452943 0.499999681 Ni
Ni    -0.000000187 0.375546560 0.499999620 Ni
Ni    0.499999715 -0.000000193 0.624452019 Ni
Ni    0.499999675 -0.000000203 0.375547460 Ni
Ni    0.624452493 0.499999658 -0.000000273 Ni
Ni    0.375547106 0.499999589 -0.000000144 Ni
Ni    0.624452546 -0.000000203 0.499999615 Ni
Ni    0.375546944 -0.000000226 0.499999744 Ni
Ni    -0.000000251 0.499999659 0.375546603 Ni
Ni    -0.000000208 0.499999740 0.624452765 Ni
Ni    0.499999669 0.624452009 -0.000000209 Ni
Ni    0.499999769 0.375547299 -0.000000209 Ni
H     0.868738539 0.719085917 0.554635608  H
H     0.131260683 0.280913507 0.554635760  H
H     0.131260498 0.719086189 0.445363617  H
H     0.868738687 0.280913518 0.445363710  H
H     0.554635185 0.868738864 0.719085514  H
H     0.554635162 0.131260538 0.280913811  H
H     0.445363980 0.131260325 0.719086019  H
H     0.445364282 0.868738835 0.280913811  H
H     0.719085789 0.554635376 0.868738716  H
H     0.280913571 0.554635306 0.131260673  H
H     0.719086084 0.445363930 0.131260489  H
H     0.280913741 0.445364131 0.868738870  H
H     0.719086497 0.868739240 0.445363555  H
H     0.280912977 0.131260354 0.445363757  H
H     0.719086531 0.131260277 0.554635808  H
H     0.280913321 0.868738779 0.554635673  H
H     0.868738758 0.554635404 0.280913459  H
H     0.131260224 0.554635789 0.719086371  H
H     0.131260128 0.445363605 0.280912914  H
H     0.868739127 0.445363933 0.719086115  H
H     0.554635396 0.719085986 0.131260196  H
H     0.554635111 0.280913672 0.868738771  H
H     0.445364203 0.719085804 0.868739153  H
H     0.445364051 0.280913178 0.131260151  H
H     0.131260624 0.280913337 0.445363613  H
H     0.868738712 0.719085858 0.445363728  H
H     0.868738490 0.280913743 0.554635400  H
H     0.131260590 0.719086269 0.554635943  H
H     0.445364018 0.131260356 0.280913687  H
H     0.445364282 0.868738955 0.719085669  H
H     0.554635001 0.868738698 0.280913929  H
H     0.554635395 0.131260448 0.719085840  H
H     0.280913553 0.445363913 0.131260491  H
H     0.719085796 0.445364150 0.868738740  H
H     0.280913802 0.554635104 0.868738619  H
H     0.719086142 0.554635600 0.131260383  H
H     0.280912920 0.131260194 0.554635905  H
H     0.719086212 0.868738826 0.554635532  H
H     0.280913186 0.868738998 0.445363842  H
H     0.719086664 0.131260198 0.445363407  H
H     0.131260141 0.445363677 0.719086420  H
H     0.868738953 0.445363910 0.280913291  H
H     0.868739027 0.554635619 0.719086157  H
H     0.131260319 0.554635614 0.280913162  H
H     0.445364187 0.280913447 0.868739087  H
H     0.445363919 0.719086180 0.131260181  H
H     0.554635309 0.280913516 0.131260295  H
H     0.554635071 0.719085744 0.868738986  H
H     0.771441336 0.771441433 0.607743187  H
H     0.228556623 0.228556565 0.607744641  H
H     0.228558147 0.771441343 0.392256522  H
H     0.771441281 0.228558017 0.392256342  H
H     0.607742543 0.771441251 0.771441246  H
H     0.607743841 0.228556888 0.228556808  H
H     0.392256844 0.228558195 0.771441325  H
H     0.392256992 0.771441067 0.228558386  H
H     0.771441011 0.607742791 0.771441371  H
H     0.228556932 0.607744141 0.228556764  H
H     0.771440964 0.392256734 0.228558194  H
H     0.228558405 0.392256690 0.771441371  H
H     0.771440537 0.771440713 0.392257107  H
H     0.228557425 0.228557420 0.392255684  H
H     0.771442134 0.228557364 0.607743766  H
H     0.228557430 0.771442229 0.607743987  H
H     0.771441806 0.607743639 0.228557349  H
H     0.228557688 0.607743539 0.771442088  H
H     0.228557797 0.392256044 0.228557399  H
H     0.771440302 0.392257661 0.771440439  H
H     0.607743339 0.771442025 0.228557375  H
H     0.607743316 0.228557672 0.771441807  H
H     0.392257821 0.771440363 0.771440538  H
H     0.392256300 0.228557514 0.228557599  H
C     0.877804858 0.672781362 0.588804880  C
C     0.122194320 0.327217907 0.588804956  C
C     0.122194355 0.672781701 0.411194391  C
C     0.877804881 0.327217941 0.411194660  C
C     0.588804962 0.877804864 0.672780909  C
C     0.588805147 0.122194393 0.327218419  C
C     0.411194209 0.122194327 0.672781344  C
C     0.411194341 0.877804851 0.327218746  C
C     0.672781078 0.588804889 0.877804652  C
C     0.327218347 0.588805084 0.122194577  C
C     0.672781300 0.411194330 0.122194516  C
C     0.327218554 0.411194502 0.877804824  C
C     0.672781350 0.877805076 0.411194231  C
C     0.327218093 0.122194312 0.411194188  C
C     0.672781524 0.122194265 0.588805300  C
C     0.327218378 0.877804905 0.588805146  C
C     0.877805042 0.588805062 0.327218538  C
C     0.122194103 0.588805466 0.672781368  C
C     0.122194166 0.411194057 0.327217904  C
C     0.877805017 0.411194471 0.672781211  C
C     0.588805172 0.672781207 0.122194342  C
C     0.588805133 0.327218881 0.877804717  C
C     0.411194566 0.672780978 0.877804829  C
C     0.411194223 0.327218267 0.122194396  C
C     0.122194335 0.327217959 0.411194242  C
C     0.877804828 0.672781686 0.411194897  C
C     0.877804844 0.327218352 0.588804777  C
C     0.122194301 0.672781789 0.588805129  C
C     0.411194219 0.122194385 0.327218357  C
C     0.411194653 0.877804851 0.672781140  C
C     0.588804989 0.877804869 0.327218647  C
C     0.588805389 0.122194350 0.672780996  C
C     0.327218345 0.411194204 0.122194565  C
C     0.672781242 0.411194717 0.877804571  C
C     0.327218647 0.588804833 0.877804715  C
C     0.672781269 0.588805226 0.122194318  C
C     0.327218142 0.122194116 0.588805526  C
C     0.672781188 0.877804901 0.588805017  C
C     0.327218189 0.877804903 0.411194435  C
C     0.672781571 0.122194266 0.411194048  C
C     0.122194115 0.411194212 0.672781484  C
C     0.877805048 0.411194328 0.327218360  C
C     0.877805023 0.588805143 0.672781260  C
C     0.122194143 0.588805426 0.327218267  C
C     0.411194490 0.327218438 0.877804865  C
C     0.411194169 0.672781146 0.122194448  C
C     0.588805226 0.327218434 0.122194403  C
C     0.588804930 0.672780799 0.877804799  C
C     0.779613269 0.686360497 0.686360680  C
C     0.841937592 0.652136650 0.652136880  C
C     0.220385544 0.313638395 0.686361208  C
C     0.158061509 0.347862447 0.652137370  C
C     0.220385622 0.686361148 0.313638527  C
C     0.158061370 0.652136890 0.347862207  C
C     0.779613458 0.313638693 0.313638825  C
C     0.841937541 0.347862871 0.347862468  C
C     0.686360330 0.779613318 0.686360687  C
C     0.652136507 0.841937848 0.652136398  C
C     0.686360849 0.220385522 0.313638311  C
C     0.652136866 0.158061195 0.347862562  C
C     0.313638551 0.220385450 0.686361375  C
C     0.347862428 0.158061084 0.652136959  C
C     0.313638867 0.779613457 0.313638868  C
C     0.347863062 0.841937881 0.347863014  C
C     0.686360227 0.686360493 0.779613394  C
C     0.652136128 0.652136404 0.841937807  C
C     0.313638639 0.686361046 0.220385750  C
C     0.347862887 0.652136661 0.158061227  C
C     0.686360716 0.313638367 0.220385637  C
C     0.652136571 0.347862746 0.158061214  C
C     0.313639080 0.313638715 0.779613685  C
C     0.347863193 0.347862987 0.841937856  C
C     0.686360464 0.779613642 0.313638792  C
C     0.652136528 0.841937897 0.347862844  C
C     0.313638505 0.220385545 0.313638155  C
C     0.347862555 0.158061142 0.347862745  C
C     0.686361032 0.220385859 0.686360975  C
C     0.652136860 0.158061122 0.652136834  C
C     0.313639272 0.779613538 0.686360864  C
C     0.347862948 0.841937770 0.652136523  C
C     0.779613439 0.686360805 0.313639045  C
C     0.841937393 0.652136527 0.347862405  C
C     0.220385761 0.686361165 0.686361107  C
C     0.158061400 0.652137071 0.652137390  C
C     0.220385588 0.313638328 0.313638117  C
C     0.158061353 0.347862447 0.347862147  C
C     0.779613446 0.313639145 0.686360618  C
C     0.841937593 0.347862934 0.652136702  C
C     0.686360678 0.686361207 0.220385589  C
C     0.652136755 0.652136824 0.158061159  C
C     0.686360542 0.313639236 0.779613276  C
C     0.652136041 0.347863074 0.841937710  C
C     0.313639371 0.686360703 0.779613478  C
C     0.347863238 0.652136214 0.841937820  C
C     0.313638615 0.313638263 0.220385473  C
C     0.347862959 0.347862630 0.158061135  C
C     0.748185672 0.748185759 0.656339920  C
C     0.251812736 0.251812828 0.656340833  C
C     0.251813624 0.748185807 0.343659303  C
C     0.748185897 0.251813596 0.343659248  C
C     0.656339536 0.748185766 0.748185635  C
C     0.656340408 0.251813036 0.251812858  C
C     0.343659532 0.251813492 0.748185962  C
C     0.343659709 0.748185727 0.251813591  C
C     0.748185613 0.656339662 0.748185727  C
C     0.251813014 0.656340405 0.251812813  C
C     0.748185801 0.343659726 0.251813454  C
C     0.251813474 0.343659661 0.748186006  C
C     0.748185514 0.748185394 0.343659667  C
C     0.251813108 0.251813103 0.343658898  C
C     0.748185989 0.251813232 0.656340276  C
C     0.251813209 0.748186083 0.656340451  C
C     0.748186142 0.656339933 0.251813067  C
C     0.251813274 0.656339943 0.748186233  C
C     0.251813193 0.343659123 0.251813087  C
C     0.748185229 0.343660062 0.748185354  C
C     0.656340069 0.748186057 0.251813094  C
C     0.656339881 0.251813301 0.748185958  C
C     0.343660079 0.748185274 0.748185496  C
C     0.343659190 0.251813066 0.251813240  C
N     0.930149370 0.625038120 0.573191350  N
N     0.069850101 0.374961468 0.573191306  N
N     0.069849902 0.625038082 0.426808114  N
N     0.930149489 0.374961419 0.426808112  N
N     0.573191261 0.930149549 0.625037691  N
N     0.573191256 0.069849987 0.374961687  N
N     0.426808212 0.069849878 0.625037895  N
N     0.426808228 0.930149488 0.374961693  N
N     0.625037884 0.573191002 0.930149492  N
N     0.374961516 0.573191042 0.069850056  N
N     0.625038007 0.426808390 0.069849926  N
N     0.374961659 0.426808337 0.930149508  N
N     0.625038194 0.930149607 0.426808251  N
N     0.374961258 0.069850009 0.426808400  N
N     0.625038252 0.069849919 0.573191166  N
N     0.374961356 0.930149448 0.573191154  N
N     0.930149287 0.573191256 0.374961288  N
N     0.069850005 0.573191462 0.625038244  N
N     0.069849949 0.426808125 0.374961157  N
N     0.930149575 0.426808250 0.625038077  N
N     0.573191172 0.625037736 0.069849797  N
N     0.573191146 0.374961658 0.930149434  N
N     0.426808366 0.625037653 0.930149707  N
N     0.426808409 0.374961541 0.069849902  N
N     0.069850084 0.374961369 0.426808027  N
N     0.930149489 0.625037939 0.426808188  N
N     0.930149386 0.374961496 0.573191224  N
N     0.069849981 0.625038225 0.573191397  N
N     0.426808187 0.069849916 0.374961745  N
N     0.426808286 0.930149585 0.625037771  N
N     0.573191211 0.930149486 0.374961675  N
N     0.573191330 0.069849974 0.625037839  N
N     0.374961660 0.426808324 0.069849982  N
N     0.625037896 0.426808423 0.930149549  N
N     0.374961572 0.573190954 0.930149441  N
N     0.625038061 0.573191124 0.069849964  N
N     0.374961236 0.069849981 0.573191284  N
N     0.625038171 0.930149455 0.573191053  N
N     0.374961330 0.930149559 0.426808371  N
N     0.625038240 0.069849873 0.426808281  N
N     0.069849992 0.426808203 0.625038182  N
N     0.930149407 0.426808148 0.374961253  N
N     0.930149501 0.573191353 0.625038172  N
N     0.069850008 0.573191360 0.374961195  N
N     0.426808427 0.374961609 0.930149636  N
N     0.426808301 0.625037800 0.069849874  N
N     0.573191195 0.374961679 0.069849864  N
N     0.573191076 0.625037677 0.930149541  N
