data_I
_chemical_name_common  'VEBHUG'
_cell_length_a 20.86036
_cell_length_b 20.83031
_cell_length_c 20.82882
_cell_angle_alpha 59.92806
_cell_angle_beta  59.94571
_cell_angle_gamma 59.94797


_symmetry_space_group_name_H-M    'P 1'
_symmetry_int_tables_number       1
_space_group_name_H-M_alt      'P 1'


loop_
_space_group_symop_operation_xyz
  'x, y, z' 

loop_
_atom_site_label
_atom_site_fract_x
_atom_site_fract_y
_atom_site_fract_z
_atom_site_type_symbol
Zn    0.211639396 0.365607691 0.211141021 Zn
Zn    0.365450456 0.211435992 0.211363579 Zn
Zn    0.211793631 0.211428927 0.211408902 Zn
Zn    0.211596954 0.211384663 0.365495368 Zn
Zn    0.634729593 0.788486725 0.788446294 Zn
Zn    0.788577744 0.634383225 0.788553486 Zn
Zn    0.788356720 0.788486061 0.788489752 Zn
Zn    0.788545766 0.788770012 0.634284605 Zn
H     0.061429205 0.540050416 0.061608801  H
H     0.539432875 0.061944143 0.336436106  H
H     0.062234971 0.060876397 0.540194223  H
H     0.336932989 0.540078184 0.061971054  H
H     0.336850260 0.061569412 0.061948690  H
H     0.062799202 0.336656189 0.539665380  H
H     0.663242975 0.938303595 0.937953503  H
H     0.937823509 0.663650269 0.459821387  H
H     0.937765495 0.939294890 0.459844011  H
H     0.663394580 0.459765904 0.937810663  H
H     0.460684124 0.938067217 0.663396618  H
H     0.938625903 0.459760017 0.938295101  H
S     0.048858946 0.377976192 0.048604097  S
S     0.378299221 0.048185178 0.524993350  S
C     0.048794839 0.503836547 0.048837977  C
C     0.503501148 0.049009877 0.398261432  C
C     0.049217529 0.048508429 0.503964934  C
C     0.398562498 0.503860582 0.048951867  C
S     0.048500021 0.049084423 0.378080971  S
S     0.524617691 0.377996479 0.048066696  S
S     0.048496955 0.525009773 0.377794553  S
C     0.398510153 0.048840914 0.048988740  C
C     0.049652614 0.398453628 0.503519483  C
S     0.524743103 0.048680920 0.048223359  S
C     0.601586791 0.951023299 0.950903843  C
C     0.950971815 0.601857197 0.495982476  C
S     0.475359508 0.951182977 0.951651564  S
S     0.952109792 0.475297333 0.621708126  S
C     0.950800474 0.951656320 0.496066086  C
S     0.475701618 0.621842958 0.951744840  S
S     0.951546342 0.951042188 0.621954634  S
C     0.601761668 0.495978907 0.950848859  C
C     0.496618140 0.951004946 0.601571396  C
S     0.951210152 0.621831715 0.951296563  S
S     0.621823255 0.951830751 0.474839450  S
C     0.951261946 0.495970654 0.951069909  C
C     0.127456115 0.372933325 0.127222590  C
C     0.077472520 0.422478279 0.077363397  C
C     0.372590836 0.127091104 0.372684930  C
C     0.422282761 0.077229605 0.422841290  C
C     0.127576039 0.127206592 0.373025262  C
C     0.077606898 0.077332587 0.422598297  C
C     0.372429122 0.372956561 0.126980079  C
C     0.422725270 0.422504418 0.077140709  C
C     0.127680652 0.372644412 0.372530031  C
C     0.077809945 0.422884976 0.422150426  C
C     0.372631871 0.127359439 0.127176641  C
C     0.422833539 0.077436951 0.077270369  C
C     0.627479660 0.872515732 0.872708201  C
C     0.577267684 0.922429690 0.922616758  C
C     0.872765621 0.627630712 0.627010134  C
C     0.922767159 0.577424799 0.577353616  C
C     0.872464302 0.872934785 0.626970848  C
C     0.922421620 0.922819660 0.577431231  C
C     0.627866254 0.626901753 0.872744079  C
C     0.577592131 0.577335501 0.922645867  C
C     0.627536453 0.872902198 0.627139452  C
C     0.577837040 0.922777491 0.576992208  C
C     0.872650021 0.626899989 0.872647651  C
C     0.922597669 0.577329478 0.922539311  C
C     -0.002851662 0.469149271 -0.003009767  C
C     0.469501537 -0.003101828 0.536688228  C
C     0.002907818 0.530658436 0.002919471  C
C     0.530621720 0.003125968 0.463142361  C
C     0.463556192 0.530675163 0.003045998  C
C     -0.003091830 -0.002653330 0.469256045  C
C     0.536767842 0.469163487 -0.003221580  C
C     -0.002889344 0.536889404 0.469043942  C
C     0.463402766 0.002877103 0.003041455  C
C     0.536687575 -0.003014814 -0.003154608  C
O     0.250044420 0.250045040 0.249925779  O
O     0.750133629 0.749947339 0.749860426  O
O     0.146697544 0.408492340 0.146412373  O
O     0.407933721 0.146514827 0.298527355  O
O     0.146974102 0.298589962 0.146660102  O
O     0.298395450 0.146324800 0.408311933  O
O     0.147336309 0.146358271 0.298683313  O
O     0.407835953 0.298613938 0.146612005  O
O     0.146525676 0.146733161 0.408547070  O
O     0.298425019 0.408509953 0.145979964  O
O     0.146961168 0.298490763 0.408083164  O
O     0.408070775 0.146638496 0.146634476  O
O     0.147016113 0.408231389 0.298173700  O
O     0.298627437 0.146778110 0.146426349  O
O     0.592052775 0.853268682 0.853203441  O
O     0.853377271 0.591986675 0.701357806  O
O     0.701478685 0.853074805 0.853506050  O
O     0.853425534 0.701792303 0.591510851  O
O     0.852817280 0.853606642 0.701322241  O
O     0.701876290 0.591369222 0.853611815  O
O     0.853411416 0.853576052 0.591393074  O
O     0.592437015 0.701241118 0.853186673  O
O     0.701732437 0.853701377 0.591491376  O
O     0.853398744 0.591370482 0.853434602  O
O     0.592214322 0.853432313 0.701298709  O
O     0.853175138 0.701238300 0.853204699  O
C     0.003548974 0.463418773 0.530462476  C
C     0.003120440 0.002803857 0.530779504  C
