data_I
_chemical_name_common  'VEJYUF'
_cell_length_a 15.38531
_cell_length_b 15.11321
_cell_length_c 18.42859
_cell_angle_alpha 90.11229
_cell_angle_beta  90.00006
_cell_angle_gamma 89.99926


_symmetry_space_group_name_H-M    'P 1'
_symmetry_int_tables_number       1
_space_group_name_H-M_alt      'P 1'


loop_
_space_group_symop_operation_xyz
  'x, y, z' 

loop_
_atom_site_label
_atom_site_fract_x
_atom_site_fract_y
_atom_site_fract_z
_atom_site_type_symbol
C     0.869762655 0.732263432 0.852420932  C
H     0.827844867 0.783645327 0.831017456  H
C     0.913435419 0.611502957 0.904605501  C
H     0.909237899 0.548249470 0.931926580  H
C     0.985429142 0.659121946 0.883435786  C
H     0.053990375 0.644386168 0.889567185  H
C     0.677454411 0.522334294 0.772135720  C
H     0.727824426 0.556135629 0.741847801  H
C     0.662131958 0.833986781 0.878724482  C
H     0.700772303 0.856951812 0.924257371  H
C     0.601430036 0.741052956 0.804090176  C
H     0.581784197 0.679738731 0.778016555  H
C     0.112477261 0.855901451 0.959244721  C
H     0.055877405 0.831611821 0.988135212  H
C     0.116748005 0.879809753 0.672191347  C
H     0.108753886 0.950695447 0.678529910  H
C     0.902568715 0.986584762 0.864627348  C
H     0.929062421 0.984466694 0.919170139  H
C     0.882233495 0.959870632 0.749919951  C
H     0.892569302 0.929636766 0.697171999  H
C     0.743813223 0.599036167 0.063688802  C
H     0.810761806 0.580682354 0.053128080  H
C     0.198689888 0.896064578 0.871881475  C
H     0.219558447 0.909267137 0.816800952  H
N     0.840178361 0.658447304 0.884704933  N
N     0.957050675 0.735720162 0.850410368  N
N     0.688665075 0.624593102 0.008464573  N
N     0.664129307 0.538866966 0.845053215  N
N     0.652171993 0.744919083 0.863466930  N
N     0.115422544 0.867554246 0.886963603  N
N     0.078608390 0.820531979 0.719373788  N
N     0.932804080 0.937566839 0.808973788  N
Zn    0.714248239 0.638471145 0.903512701 Zn
Zn    0.022040843 0.841908937 0.814692912 Zn
C     0.629424710 0.268489645 0.353191876  C
H     0.671563931 0.216898354 0.332098776  H
C     0.585236884 0.390006337 0.404692077  C
H     0.589156893 0.453728644 0.431730082  H
C     0.513451395 0.341813284 0.383581481  C
H     0.444825342 0.356469343 0.389429274  H
C     0.821015392 0.478693805 0.272583765  C
H     0.770366476 0.444999215 0.242312008  H
C     0.837588848 0.167903368 0.379032826  C
H     0.799079860 0.145261920 0.424602331  H
C     0.897756577 0.260292311 0.304256069  C
H     0.917024691 0.321416888 0.278087410  H
C     0.386868623 0.143061866 0.459346420  C
H     0.442948551 0.168226940 0.488604702  H
C     0.383231026 0.118650677 0.172588414  C
H     0.390837030 0.047795404 0.179023270  H
C     0.598592927 0.014701093 0.365031944  C
H     0.572030151 0.017136595 0.419558257  H
C     0.618838737 0.040479949 0.250351934  C
H     0.608264278 0.070084049 0.197597170  H
C     0.301690925 0.101538650 0.371433827  C
H     0.281252804 0.088040706 0.316202179  H
C     0.756350819 0.404092160 0.564317260  C
H     0.689651497 0.423557945 0.554106705  H
N     0.658689405 0.342936058 0.385185857  N
N     0.542153405 0.264735767 0.351001912  N
N     0.810834944 0.377657823 0.508743727  N
N     0.834299164 0.462745397 0.345489888  N
N     0.847010396 0.256844778 0.363623790  N
N     0.384444423 0.131367000 0.386977744  N
N     0.421699315 0.178271839 0.219684874  N
N     0.568041433 0.062946452 0.309378255  N
Zn    0.784568240 0.363450290 0.403828861 Zn
Zn    0.477901913 0.157811892 0.315150490 Zn
C     0.369766066 0.767728017 0.147579944  C
H     0.327848134 0.716347578 0.168982349  H
C     0.413433578 0.888490153 0.095395709  C
H     0.409231939 0.951746048 0.068076720  H
C     0.485427612 0.840869633 0.116566221  C
H     0.553988071 0.855606214 0.110435704  H
C     0.177453341 0.977661419 0.227865129  C
H     0.227823229 0.943856052 0.258154875  H
C     0.162129586 0.666006689 0.121276152  C
H     0.200769210 0.643043639 0.075740646  H
C     0.101425477 0.758941735 0.195913962  C
H     0.081782290 0.820256331 0.221986722  H
C     0.612477029 0.644091084 0.040755358  C
H     0.555876896 0.668381038 0.011864658  H
C     0.616750360 0.620186309 0.327808793  C
H     0.608760428 0.549298381 0.321472804  H
C     0.402575350 0.513409373 0.135375465  C
H     0.429064495 0.515534441 0.080830694  H
C     0.382230360 0.540131421 0.250079968  C
H     0.392571347 0.570359430 0.302829253  H
C     0.243807726 0.900959755 0.936311131  C
H     0.310755114 0.919316774 0.946872100  H
C     0.698694128 0.603929947 0.128117444  C
H     0.719563962 0.590728044 0.183198011  H
N     0.340179488 0.841544515 0.115295825  N
N     0.457054017 0.764271352 0.149591326  N
N     0.188662987 0.875401079 0.991536611  N
N     0.164128101 0.961129430 0.154948413  N
N     0.152167225 0.755073595 0.136536139  N
N     0.615424426 0.632436685 0.113036075  N
N     0.578611611 0.679461955 0.280623647  N
N     0.432807500 0.562427324 0.191028941  N
Zn    0.214248821 0.861519110 0.096497859 Zn
Zn    0.522039723 0.658078947 0.185308758 Zn
C     0.129421931 0.231515907 0.646808466  C
H     0.171561933 0.283107818 0.667898958  H
C     0.085238247 0.109999520 0.595308121  C
H     0.089162994 0.046274642 0.568272802  H
C     0.013453053 0.158194740 0.616418884  C
H     0.944827928 0.143536817 0.610569833  H
C     0.321017191 0.021307560 0.727414138  C
H     0.270366975 0.055005431 0.757685897  H
C     0.337589239 0.332102396 0.620969059  C
H     0.299082378 0.354742586 0.575396978  H
C     0.397759168 0.239713004 0.695748449  C
H     0.417027130 0.178589625 0.721917960  H
C     0.886867202 0.356943953 0.540652125  C
H     0.942948852 0.331782444 0.511393799  H
C     0.883231378 0.381355650 0.827409884  C
H     0.890834374 0.452211262 0.820978458  H
C     0.098589338 0.485300914 0.634967713  C
H     0.072027531 0.482863681 0.580441428  H
C     0.118840002 0.459520674 0.749647333  C
H     0.108262507 0.429921338 0.802403083  H
C     0.801686892 0.398467564 0.628565136  C
H     0.781250401 0.411963559 0.683796260  H
C     0.256354432 0.095913314 0.435680550  C
H     0.189657797 0.076446713 0.445890666  H
N     0.158688421 0.157069937 0.614814863  N
N     0.042151339 0.235271933 0.648998049  N
N     0.310837498 0.122348648 0.491254945  N
N     0.334300605 0.037257205 0.654508593  N
N     0.347012896 0.243161334 0.636379630  N
N     0.884443141 0.368639360 0.613021096  N
N     0.921700655 0.321734234 0.780311370  N
N     0.068040241 0.437057722 0.690622600  N
Zn    0.284566038 0.136560313 0.596169971 Zn
Zn    0.977909709 0.342199692 0.684848497 Zn
C     0.130236877 0.267736630 0.147579900  C
H     0.172156675 0.216354909 0.168983253  H
C     0.086563924 0.388495690 0.095394579  C
H     0.090761244 0.451749779 0.068073067  H
C     0.014571782 0.340876735 0.116565324  C
H     0.946010157 0.355612751 0.110434528  H
C     0.322544146 0.477667415 0.227863843  C
H     0.272176232 0.443862597 0.258154599  H
C     0.337867997 0.166013042 0.121275082  C
H     0.299227460 0.143048342 0.075741851  H
C     0.398570262 0.258946471 0.195909589  C
H     0.418215531 0.320261002 0.221983320  H
C     0.887523147 0.144099678 0.040757662  C
H     0.944122680 0.168387231 0.011864736  H
C     0.883251168 0.120190820 0.327810230  C
H     0.891244508 0.049301752 0.321472218  H
C     0.097429050 0.013413849 0.135374674  C
H     0.070935873 0.015534636 0.080830942  H
C     0.117767317 0.040129545 0.250080807  C
H     0.107431722 0.070363118 0.302827972  H
C     0.256186061 0.400964649 0.936310489  C
H     0.189238196 0.419321299 0.946870745  H
C     0.801309324 0.103934956 0.128120306  C
H     0.780438894 0.090730751 0.183200330  H
N     0.159821000 0.341551687 0.115295289  N
N     0.042949645 0.264278895 0.149591298  N
N     0.311333364 0.375408362 0.991535770  N
N     0.335873011 0.461131539 0.154947666  N
N     0.347828266 0.255080233 0.136533281  N
N     0.884577330 0.132444952 0.113038285  N
N     0.921390018 0.179467026 0.280627045  N
N     0.067194980 0.062432429 0.191027556  N
Zn    0.285750764 0.361529193 0.096489309 Zn
Zn    0.977960358 0.158089258 0.185309920 Zn
C     0.370574301 0.731510937 0.646806910  C
H     0.328436399 0.783104102 0.667899113  H
C     0.414760815 0.609993185 0.595307396  C
H     0.410840953 0.546270010 0.568270021  H
C     0.486546023 0.658186530 0.616417361  C
H     0.555172017 0.643530097 0.610570687  H
C     0.178982608 0.521305386 0.727415182  C
H     0.229631086 0.555000825 0.757687307  H
C     0.162412028 0.832096726 0.620967900  C
H     0.200919035 0.854740679 0.575397858  H
C     0.102242414 0.739707147 0.695743998  C
H     0.082973520 0.678584644 0.721914856  H
C     0.613134799 0.856937402 0.540652667  C
H     0.557052797 0.831775356 0.511393798  H
C     0.616769510 0.881348909 0.827411221  C
H     0.609163706 0.952205626 0.820975541  H
C     0.401408790 0.985299806 0.634967246  C
H     0.427974161 0.982864706 0.580441030  H
C     0.381160615 0.959519883 0.749645729  C
H     0.391736104 0.929915618 0.802399830  H
C     0.698310679 0.898463602 0.628565158  C
H     0.718748156 0.911960626 0.683797622  H
C     0.243649718 0.595906504 0.435681845  C
H     0.310348849 0.576441735 0.445890724  H
N     0.341308491 0.657064580 0.614813249  N
N     0.457845492 0.735264562 0.648996686  N
N     0.189164019 0.622341413 0.491255553  N
N     0.165698520 0.537254279 0.654509257  N
N     0.152989519 0.743155712 0.636376905  N
N     0.615557956 0.868632613 0.613020784  N
N     0.578301466 0.821727719 0.780315065  N
N     0.431959423 0.937053517 0.690620074  N
Zn    0.215428851 0.636550363 0.596166712 Zn
Zn    0.522098087 0.842188222 0.684848539 Zn
C     0.630232721 0.232271015 0.852420555  C
H     0.672152402 0.283651757 0.831018240  H
C     0.586565721 0.111509825 0.904603828  C
H     0.590768477 0.048254805 0.931923241  H
C     0.514570353 0.159129600 0.883434193  C
H     0.446010190 0.144392252 0.889566641  H
C     0.822546193 0.022338947 0.772135295  C
H     0.772176265 0.056143422 0.741846818  H
C     0.837870804 0.333992608 0.878722976  C
H     0.799230390 0.356953804 0.924258493  H
C     0.898574363 0.241059135 0.804086658  C
H     0.918217606 0.179741348 0.778015487  H
C     0.387521150 0.355909105 0.959245894  C
H     0.444121386 0.331619521 0.988137252  H
C     0.383250017 0.379814419 0.672192487  C
H     0.391239968 0.450701622 0.678528927  H
C     0.597428174 0.486587478 0.864626430  C
H     0.570935712 0.484470073 0.919169508  H
C     0.617766361 0.459869679 0.749918871  C
H     0.607429717 0.429637893 0.697170215  H
C     0.756192531 0.099042084 0.063689893  C
H     0.689245609 0.080686695 0.053127074  H
C     0.301306239 0.396069540 0.871882676  C
H     0.280436352 0.409271256 0.816802130  H
N     0.659819647 0.158455244 0.884703981  N
N     0.542945500 0.235728013 0.850409468  N
N     0.811337757 0.124601058 0.008465434  N
N     0.835869878 0.038870087 0.845053018  N
N     0.847833466 0.244925811 0.863463646  N
N     0.384574995 0.367562243 0.886965188  N
N     0.421389971 0.320538796 0.719377617  N
N     0.567193037 0.437571992 0.808972097  N
Zn    0.785749863 0.138480803 0.903506809 Zn
Zn    0.477958403 0.341920466 0.814696721 Zn
C     0.870579311 0.768484389 0.353190782  C
H     0.828438612 0.716893913 0.332098122  H
C     0.914763329 0.890000780 0.404690602  C
H     0.910839475 0.953724530 0.431726913  H
C     0.986549790 0.841804825 0.383580281  C
H     0.055174062 0.856461055 0.389430544  H
C     0.678983864 0.978692805 0.272583629  C
H     0.729633251 0.944994650 0.242313581  H
C     0.662410513 0.667898787 0.379032471  C
H     0.700917317 0.645258473 0.424603496  H
C     0.602241274 0.760288146 0.304251578  C
H     0.582972392 0.821411360 0.278082080  H
C     0.113130970 0.643055172 0.459347512  C
H     0.057049208 0.668219495 0.488604010  H
C     0.116768440 0.618645444 0.172589254  C
H     0.109164914 0.547790512 0.179021457  H
C     0.901408985 0.514698255 0.365031947  C
H     0.927971033 0.517136232 0.419557890  H
C     0.881159489 0.540477825 0.250351803  C
H     0.891736985 0.570077870 0.197596211  H
C     0.198310706 0.601532116 0.371436465  C
H     0.218747464 0.588037388 0.316204144  H
C     0.743646632 0.904088533 0.564317370  C
H     0.810343287 0.923553413 0.554107322  H
N     0.841313387 0.842930343 0.385184049  N
N     0.957849471 0.764727774 0.351001146  N
N     0.689164167 0.877651171 0.508742747  N
N     0.665701825 0.962744103 0.345489807  N
N     0.652986993 0.756839758 0.363620595  N
N     0.115555679 0.631359250 0.386978851  N
N     0.078299181 0.678265253 0.219688043  N
N     0.931958125 0.562941527 0.309377014  N
Zn    0.715435272 0.863438142 0.403823881 Zn
Zn    0.022092413 0.657801816 0.315150607 Zn
