data_I
_chemical_name_common  'VELVOY'
_cell_length_a 16.84451
_cell_length_b 17.23414
_cell_length_c 16.99048
_cell_angle_alpha 90.00159
_cell_angle_beta  90.04129
_cell_angle_gamma 89.99347


_symmetry_space_group_name_H-M    'P 1'
_symmetry_int_tables_number       1
_space_group_name_H-M_alt      'P 1'


loop_
_space_group_symop_operation_xyz
  'x, y, z' 

loop_
_atom_site_label
_atom_site_fract_x
_atom_site_fract_y
_atom_site_fract_z
_atom_site_type_symbol
C     0.377791419 0.006628582 0.624047547  C
C     0.370507502 0.896265807 0.687161136  C
H     0.385798435 0.852034321 0.729933860  H
C     0.406660905 0.083725667 0.596453934  C
N     0.410820745 0.965977510 0.683720135  N
Zn    0.500904213 -0.000990556 0.752650014 Zn
C     0.007340988 0.623718537 0.378106131  C
C     0.893131115 0.627152466 0.316823940  C
H     0.847273712 0.610094297 0.275479885  H
C     0.087220737 0.597815324 0.405429899  C
N     0.965169577 0.588940170 0.320294355  N
Zn    -0.000397658 0.500684818 0.252172357 Zn
C     0.624215968 0.992899650 0.624585067  C
C     0.633198855 0.101372118 0.690814724  C
H     0.618834070 0.144462048 0.735025853  H
C     0.594705903 0.916683725 0.595129695  C
H     0.550197295 0.924515889 0.548315808  H
H     0.566521036 0.883460885 0.642454508  H
H     0.643194016 0.882040071 0.570315339  H
N     0.591880873 0.032347081 0.685369459  N
C     0.993268601 0.377479072 0.377790447  C
C     0.106486726 0.373429487 0.315089436  C
H     0.151765474 0.390194839 0.273134729  H
C     0.913970652 0.403974979 0.405947378  C
H     0.919930843 0.445103653 0.455158661  H
H     0.881168763 0.433497983 0.358925193  H
H     0.878320199 0.355073416 0.427210358  H
N     0.034751119 0.412047338 0.319506493  N
C     0.377721657 0.993751852 0.377007766  C
C     0.371188702 0.103658095 0.312967147  C
H     0.386857889 0.147473751 0.269949581  H
C     0.405593416 0.916537151 0.405385728  C
N     0.411154705 0.033760010 0.317212791  N
Zn    0.500905303 0.000014871 0.248408432 Zn
C     0.993504650 0.623043297 0.620712541  C
C     0.105964472 0.627039675 0.685080781  C
H     0.150675543 0.610312883 0.727784972  H
C     0.914377514 0.596904834 0.591537471  C
N     0.034196588 0.588577551 0.679730285  N
Zn    -0.001297633 0.499973977 0.746846551 Zn
C     0.623793161 0.006623936 0.376929218  C
C     0.633688583 0.898059259 0.310993273  C
H     0.619779403 0.854802282 0.266762179  H
C     0.593619493 0.082824893 0.405720979  C
H     0.542544743 0.075098251 0.445262324  H
H     0.573588822 0.119383511 0.356727827  H
H     0.639641883 0.114028632 0.438566136  H
N     0.592054417 0.966951055 0.315900758  N
C     0.006127209 0.377604905 0.620304829  C
C     0.893446121 0.371680117 0.683817764  C
H     0.848282389 0.387578808 0.726244098  H
C     0.084934267 0.405042412 0.591751990  C
H     0.078452914 0.442056244 0.539349690  H
H     0.115356032 0.439185382 0.637053782  H
H     0.123088434 0.356183782 0.574972307  H
N     0.964545887 0.411356001 0.679031980  N
C     0.621603617 0.376327949 0.006949909  C
C     0.685560554 0.371303843 0.895111371  C
H     0.728359199 0.387521155 0.850466477  H
C     0.592929602 0.403073835 0.085379541  C
N     0.680736791 0.410475596 0.965910270  N
Zn    0.748575440 0.499792855 -0.000673345 Zn
C     0.377313008 0.376595941 0.992816285  C
C     0.367748087 0.312752001 0.103650338  C
H     0.381862715 0.269734259 0.148062795  H
C     0.407195179 0.403892453 0.915029742  C
H     0.463367014 0.435835335 0.921542707  H
H     0.418985242 0.355017187 0.875304618  H
H     0.364174217 0.442702321 0.886910510  H
N     0.408963304 0.316698679 0.033550956  N
Zn    0.499244457 0.249278244 0.000013734 Zn
C     0.377018176 0.622630563 0.007048794  C
C     0.310917282 0.629889265 0.896385821  C
H     0.267292753 0.614550707 0.852085400  H
C     0.407242197 0.594289222 0.084401357  C
N     0.317340781 0.589078111 0.966110818  N
Zn    0.249779413 0.499659988 -0.000544122 Zn
C     0.620605756 0.622414463 0.993451682  C
C     0.630721658 0.686133021 0.104343706  C
H     0.616662791 0.728968013 0.148921397  H
C     0.590180466 0.595107736 0.915783376  C
H     0.534481777 0.562474157 0.922620371  H
H     0.577340526 0.644023676 0.876408928  H
H     0.633301283 0.556902279 0.887088815  H
N     0.589053328 0.682150925 0.034396145  N
Zn    0.498923896 0.750015368 0.001114819 Zn
C     0.687240065 0.628620811 0.103872085  C
H     0.731182079 0.612955814 0.147744033  H
N     0.680741506 0.588697268 0.033620199  N
C     0.629074068 0.313777647 0.895197093  C
H     0.613884690 0.271485129 0.850417230  H
H     0.538197217 0.437493387 0.079644874  H
H     0.579090762 0.353844392 0.123942423  H
H     0.637522276 0.439483601 0.114379994  H
N     0.589114377 0.316991791 0.966044559  N
C     0.311422873 0.370443833 0.103479397  C
H     0.267836337 0.386186557 0.147544956  H
N     0.317573403 0.410448394 0.033263476  N
C     0.367022020 0.687764500 0.896997868  C
H     0.380828469 0.731429707 0.853196626  H
H     0.460179935 0.557622354 0.076826344  H
H     0.424538568 0.642746956 0.122619648  H
H     0.362192055 0.559579300 0.114706604  H
N     0.408374350 0.683098334 0.967093137  N
C     0.893666780 0.684821784 0.372708188  C
H     0.848279384 0.726575939 0.388555400  H
H     0.082526693 0.561823900 0.458719003  H
H     0.125133648 0.647442550 0.420393433  H
H     0.116958616 0.563160552 0.360169539  H
N     0.966013472 0.682598052 0.410969026  N
Zn    0.001265675 0.750072116 0.499960387 Zn
C     0.893928462 0.314211752 0.627732072  C
H     0.849138060 0.271521162 0.612725184  H
N     0.965313801 0.318025339 0.588055266  N
Zn    0.000436931 0.250645638 0.499088479 Zn
C     0.313827088 0.104068114 0.370393282  C
H     0.270804022 0.148244082 0.385942787  H
H     0.442238005 0.922462634 0.458716719  H
H     0.355488888 0.878776130 0.420646897  H
H     0.441650191 0.887527939 0.360575902  H
N     0.318015728 0.034448105 0.410449185  N
Zn    0.249727739 0.000851637 0.500184286 Zn
C     0.106763444 0.684533244 0.629030444  C
H     0.152412018 0.726428491 0.614413366  H
H     0.920320716 0.562257035 0.537463602  H
H     0.876018395 0.646407879 0.577200367  H
H     0.884452052 0.560847931 0.635514604  H
N     0.035515685 0.681958621 0.588796994  N
C     0.690294990 0.897873718 0.369318700  C
H     0.734285585 0.854496758 0.384607700  H
N     0.683938420 0.966649526 0.410615677  N
Zn    0.751826901 0.000184046 0.500908599 Zn
C     0.106474856 0.315704829 0.370901023  C
H     0.151766234 0.273527367 0.385959268  H
N     0.034748816 0.318334631 0.410085620  N
C     0.313311191 0.896610719 0.629404144  C
H     0.270065724 0.852817726 0.613307147  H
H     0.453778902 0.077192735 0.552134975  H
H     0.358558496 0.117171245 0.569233995  H
H     0.431576587 0.117537935 0.645237184  H
N     0.317970237 0.966527441 0.589923260  N
C     0.690197977 0.101876533 0.633037406  C
H     0.734063539 0.145483040 0.618241611  H
N     0.684428454 0.033151707 0.591559379  N
C     0.876736029 0.507206912 0.123657612  C
C     0.869218737 0.397180800 0.187380277  C
H     0.884288282 0.353213337 0.230506507  H
C     0.905471438 0.584508239 0.096484936  C
H     0.961674531 0.579084982 0.064029594  H
H     0.916797708 0.623534376 0.146304783  H
H     0.862027026 0.611867876 0.057304414  H
N     0.909320304 0.466988716 0.183903782  N
C     0.507002213 0.121945774 0.879178856  C
C     0.394577224 0.126522992 0.814770144  C
H     0.349764032 0.109981071 0.772114838  H
C     0.586095811 0.095633001 0.908321191  C
N     0.466056063 0.087528480 0.820279401  N
C     0.121860223 0.493504014 0.123597686  C
C     0.130943598 0.603144989 0.187838842  C
H     0.116565501 0.647069477 0.231200158  H
C     0.092102135 0.416718450 0.095917804  C
H     0.037162502 0.423195004 0.061422809  H
H     0.078215349 0.378360431 0.145572290  H
H     0.136092100 0.388070445 0.058431237  H
N     0.089736912 0.533983370 0.183820902  N
C     0.492857863 0.876639530 0.878927821  C
C     0.605551785 0.869957392 0.815501837  C
H     0.650681420 0.885278742 0.772827960  H
C     0.414138576 0.904814642 0.906981018  C
H     0.421063065 0.951933511 0.950176461  H
H     0.378552102 0.927791558 0.858168674  H
H     0.380808182 0.858144750 0.935683593  H
N     0.534505782 0.909765646 0.819873540  N
C     0.875911857 0.493167820 0.875013893  C
C     0.865974680 0.601821547 0.809206427  C
H     0.879936105 0.645192134 0.765157590  H
C     0.906179118 0.416986219 0.903855968  C
H     0.956668627 0.424765460 0.944270705  H
H     0.927046305 0.380830672 0.854956268  H
H     0.859905534 0.385335376 0.935775755  H
N     0.907770375 0.533035085 0.814269965  N
C     0.492829892 0.122712427 0.122113709  C
C     0.606108392 0.127971617 0.184954972  C
H     0.651509856 0.111889593 0.227192701  H
C     0.413695887 0.095415281 0.094133513  C
N     0.534647393 0.088859843 0.180747916  N
C     0.121154003 0.506359122 0.875846450  C
C     0.130894960 0.397758432 0.809932865  C
H     0.116736885 0.354383652 0.765902748  H
C     0.090762746 0.582419151 0.904823123  C
N     0.089091290 0.466519209 0.815097021  N
C     0.506537084 0.877308198 0.121958261  C
C     0.395427930 0.870741174 0.188075864  C
H     0.351268581 0.886265007 0.231658966  H
C     0.584657071 0.904974021 0.091832006  C
N     0.466080794 0.910925800 0.181550676  N
C     0.123142792 0.877255070 0.506906446  C
C     0.185358894 0.874386418 0.394046528  C
H     0.227047172 0.891827838 0.348846854  H
C     0.095201386 0.902890248 0.585984721  C
N     0.181230856 0.912558298 0.465438886  N
C     0.879409575 0.877338890 0.493769703  C
C     0.871786053 0.814646982 0.605422688  C
H     0.886888324 0.772258296 0.650144395  H
C     0.907934094 0.903773964 0.415172545  C
H     0.966349260 0.931927400 0.419892465  H
H     0.914873433 0.854901210 0.374296048  H
H     0.866486326 0.945608767 0.389328527  H
N     0.911723602 0.817838598 0.534578722  N
C     0.878968066 0.123296528 0.506405223  C
C     0.812912380 0.128701903 0.395603330  C
H     0.769290177 0.112618001 0.351573488  H
C     0.909110424 0.096294996 0.584290586  C
N     0.819109671 0.089269391 0.466161319  N
C     0.122990857 0.124040789 0.493009368  C
C     0.130298455 0.186635217 0.604760605  C
H     0.115225842 0.229113152 0.649360430  H
C     0.094344729 0.097206958 0.414519403  C
H     0.042176046 0.059236871 0.420442376  H
H     0.076469808 0.146339087 0.377471513  H
H     0.140504469 0.064271425 0.383793762  H
N     0.090560831 0.183495124 0.533676654  N
C     0.186589971 0.128897980 0.605223353  C
H     0.229155763 0.112555851 0.650169773  H
N     0.181894225 0.089725876 0.534412555  N
C     0.129584466 0.816196259 0.394238178  C
H     0.114238245 0.774269760 0.349156310  H
H     0.039836423 0.936484845 0.581295576  H
H     0.082712297 0.853163121 0.624346534  H
H     0.139616493 0.939754588 0.614652239  H
N     0.090726188 0.818054463 0.465724533  N
C     0.815483827 0.872370659 0.605622958  C
H     0.772890163 0.888796640 0.650387919  H
N     0.820403086 0.911619948 0.534875054  N
C     0.869325464 0.186293799 0.395056848  C
H     0.883452680 0.228940225 0.350326291  H
H     0.963399068 0.061412116 0.577541744  H
H     0.924199791 0.145414872 0.622580679  H
H     0.864857732 0.060234462 0.614106538  H
N     0.910625292 0.182807076 0.465243870  N
C     0.394192949 0.184243235 0.870583064  C
H     0.348859444 0.226542445 0.885054327  H
H     0.580488170 0.064267382 0.964435696  H
H     0.625909853 0.144923578 0.919102715  H
H     0.614272670 0.056577793 0.865862380  H
N     0.465404181 0.181286339 0.910855774  N
C     0.395006566 0.813165223 0.132112162  C
H     0.350228764 0.770064624 0.118338155  H
H     0.577197379 0.940488922 0.038510472  H
H     0.623294970 0.856182446 0.075938744  H
H     0.615078230 0.940600096 0.135936271  H
N     0.465401251 0.817397361 0.090741826  N
C     0.809135783 0.601768490 0.867141531  C
H     0.764968777 0.645013292 0.882210559  H
N     0.815531167 0.532938802 0.908375312  N
C     0.605618180 0.185215976 0.128641108  C
H     0.650638343 0.227468488 0.113211738  H
H     0.419978911 0.051126773 0.047884553  H
H     0.379096573 0.143318626 0.069073084  H
H     0.379691550 0.069225564 0.142247762  H
N     0.533853355 0.181840391 0.089365409  N
C     0.187974081 0.397809291 0.867795899  C
H     0.232200407 0.354560363 0.882798993  H
H     0.039279997 0.574481653 0.943804707  H
H     0.136490763 0.613366212 0.938308264  H
H     0.071241806 0.619311672 0.855873389  H
N     0.181722406 0.466611753 0.909089006  N
C     0.605002164 0.813046189 0.872162020  C
H     0.649747924 0.770452686 0.887609341  H
N     0.533599979 0.817338377 0.911809388  N
C     0.812576194 0.397009491 0.129094808  C
H     0.769623277 0.353006555 0.112813001  H
N     0.817417056 0.466713095 0.089190017  N
C     0.187732420 0.602701920 0.129859346  C
H     0.231407874 0.646122114 0.113994779  H
N     0.181893424 0.533237376 0.089637147  N
