data_I
_chemical_name_common  'VOGTIV'
_cell_length_a  6.91177
_cell_length_b 15.22756
_cell_length_c 15.22770
_cell_angle_alpha 62.24727
_cell_angle_beta  81.29800
_cell_angle_gamma 98.70224


_symmetry_space_group_name_H-M    'P 1'
_symmetry_int_tables_number       1
_space_group_name_H-M_alt      'P 1'


loop_
_space_group_symop_operation_xyz
  'x, y, z' 

loop_
_atom_site_label
_atom_site_fract_x
_atom_site_fract_y
_atom_site_fract_z
_atom_site_type_symbol
Mg    0.286010053 0.267646930 0.326104300 Mg
Mg    0.612121024 0.326109032 0.406242998 Mg
Mg    0.018361455 0.406246377 0.267645489 Mg
Mg    0.713990367 0.732352871 0.673895021 Mg
Mg    0.387879329 0.673891432 0.593756258 Mg
Mg    0.981638949 0.593753498 0.732354990 Mg
H     0.317351784 0.470649049 0.551442374  H
H     0.868792174 0.551441569 0.977914706  H
H     0.846698609 0.977905028 0.470642139  H
H     0.682648228 0.529350905 0.448557868  H
H     0.131207433 0.448559044 0.022085201  H
H     0.153300275 0.022095287 0.529357734  H
C     0.246064954 0.393963184 0.433466422  C
C     0.116949285 0.449622237 0.464239751  C
C     0.933446371 0.465601205 0.433491765  C
C     0.177580623 0.483968887 0.529026876  C
C     0.679517126 0.433472113 0.172571863  C
C     0.581182214 0.464243996 0.086138455  C
C     0.366933478 0.433495414 0.100904368  C
C     0.706607758 0.529026838 0.987007094  C
C     0.852100658 0.172568218 0.393957789  C
C     0.667327029 0.086137456 0.449616396  C
C     0.467845468 0.100906719 0.465599727  C
C     0.693609327 0.987002747 0.483965122  C
C     0.753938886 0.606036385 0.566534976  C
C     0.883050355 0.550377193 0.535760543  C
C     0.066553874 0.534398616 0.566508593  C
C     0.822419688 0.516030852 0.470973544  C
C     0.320486923 0.566529046 0.827426964  C
C     0.418816914 0.535756463 0.913861783  C
C     0.633066662 0.566505458 0.899095172  C
C     0.293392703 0.470973953 0.012992785  C
C     0.147900538 0.827430681 0.606042459  C
C     0.332671662 0.913862615 0.550383574  C
C     0.532153637 0.899092885 0.534400146  C
C     0.306389652 0.012997115 0.516034937  C
O     0.195960272 0.364219158 0.371505392  O
O     0.401209650 0.376293623 0.466923110  O
O     0.863115032 0.434798970 0.371748346  O
O     0.567456198 0.371506114 0.264274188  O
O     0.868116018 0.466933394 0.156787818  O
O     0.234859306 0.371752583 0.193448427  O
O     0.831743298 0.264273117 0.364216469  O
O     0.024916038 0.156780487 0.376286478  O
O     0.428318632 0.193453578 0.434795015  O
O     0.804039929 0.635780021 0.628494635  O
O     0.598789075 0.623706767 0.533076292  O
O     0.136886107 0.565201311 0.628251473  O
O     0.432542480 0.628493020 0.735726217  O
O     0.131881139 0.533065898 0.843212902  O
O     0.765140760 0.628247946 0.806551616  O
O     0.168257006 0.735727095 0.635783499  O
O     0.975082075 0.843219005 0.623714036  O
O     0.571681522 0.806546614 0.565203908  O
