data_I
_chemical_name_common  'XUPSAE'
_cell_length_a 14.89849
_cell_length_b 14.89848
_cell_length_c 11.91250
_cell_angle_alpha 90.00001
_cell_angle_beta  89.99999
_cell_angle_gamma 89.99995


_symmetry_space_group_name_H-M    'P 1'
_symmetry_int_tables_number       1
_space_group_name_H-M_alt      'P 1'


loop_
_space_group_symop_operation_xyz
  'x, y, z' 

loop_
_atom_site_label
_atom_site_fract_x
_atom_site_fract_y
_atom_site_fract_z
_atom_site_type_symbol
O     0.622261667 0.376555842 0.604560314  O
O     0.605162479 0.285651554 0.755655282  O
C     0.593032179 0.358587034 0.701729417  C
C     0.542049279 0.430864745 0.760670209  C
C     0.539521110 0.429722813 0.877893987  C
H     0.568855629 0.372491316 0.921316222  H
O     0.122261442 0.876555384 0.104558993  O
O     0.105162653 0.785651372 0.255655718  O
C     0.093031882 0.858587136 0.201728316  C
C     0.042049169 0.930864153 0.260670796  C
C     0.039521709 0.929722419 0.377891857  C
H     0.068856337 0.872491403 0.421315278  H
O     0.877738635 0.123444398 0.104559419  O
O     0.894836853 0.214348708 0.255655252  O
C     0.906967952 0.141412468 0.201727829  C
C     0.957950769 0.069135638 0.260671000  C
C     0.960478573 0.070276947 0.377891828  C
H     0.931143836 0.127508407 0.421315465  H
O     0.377738252 0.623444555 0.604559816  O
O     0.394837632 0.714348856 0.755655236  O
C     0.406967978 0.641413228 0.701729603  C
C     0.457951012 0.569135535 0.760669893  C
C     0.460478884 0.570277614 0.877893698  C
H     0.431144367 0.627508848 0.921315878  H
O     0.623444027 0.122261058 0.854559899  O
O     0.714348857 0.105162596 1.005655623  O
C     0.641412378 0.093032218 0.951728329  C
C     0.569135604 0.042049305 0.010671366  C
C     0.570277286 0.039521392 0.127893561  C
H     0.627508770 0.068856742 0.171316085  H
O     0.123444290 0.622261212 0.354559759  O
O     0.214348095 0.605163585 0.505655093  O
C     0.141412040 0.593032437 0.451728793  C
C     0.069134857 0.542049460 0.510669751  C
C     0.070277335 0.539521639 0.627893942  C
H     0.127508149 0.568856621 0.671315766  H
O     0.876554627 0.377738904 0.354561068  O
O     0.785651175 0.394836713 0.505655424  O
C     0.858587776 0.406967505 0.451727553  C
C     0.930864342 0.457950635 0.510670253  C
C     0.929723019 0.460478824 0.627893759  C
H     0.872491382 0.431143136 0.671315653  H
O     0.376555850 0.877738991 0.854559319  O
O     0.285651393 0.894837083 1.005656022  O
C     0.358587650 0.906967893 0.951728892  C
C     0.430865312 0.957950888 0.010670948  C
C     0.429722257 0.960478209 0.127893695  C
H     0.372491940 0.931143452 0.171315981  H
O     0.877738664 0.376554784 0.145439524  O
O     0.894836870 0.285651545 -0.005655149  O
C     0.906967691 0.358587520 0.048271441  C
C     0.957950712 0.430864615 0.989329897  C
C     0.960478692 0.429722683 0.872106048  C
H     0.931143258 0.372491392 0.828684362  H
O     0.377739113 0.876555847 0.645440301  O
O     0.394836871 0.785651130 0.494343654  O
C     0.406967698 0.858587725 0.548271572  C
C     0.457950752 0.930865096 0.489329171  C
C     0.460478242 0.929722485 0.372106117  C
H     0.431143323 0.872491930 0.328683863  H
O     0.622261345 0.123443330 0.645441218  O
O     0.605162900 0.214348466 0.494345200  O
C     0.593032395 0.141412275 0.548271441  C
C     0.542049390 0.069135084 0.489329520  C
C     0.539521752 0.070277548 0.372106289  C
H     0.568856831 0.127508516 0.328684363  H
O     0.122261102 0.623444798 0.145439303  O
O     0.105163354 0.714348453 -0.005655479  O
C     0.093032314 0.641412165 0.048271285  C
C     0.042049336 0.569135231 0.989329685  C
C     0.039521238 0.570277080 0.872105986  C
H     0.068856504 0.627508444 0.828683911  H
O     0.876555854 0.122261474 0.895439384  O
O     0.785651475 0.105162536 0.744344567  O
C     0.858587375 0.093032211 0.798271085  C
C     0.930864792 0.042049253 0.739329539  C
C     0.929722849 0.039521114 0.622106027  C
H     0.872491293 0.068855582 0.578683763  H
O     0.376555393 0.622261489 0.395441527  O
O     0.285651545 0.605162484 0.244344421  O
C     0.358586730 0.593031744 0.298270952  C
C     0.430864123 0.542049154 0.239329798  C
C     0.429722342 0.539521641 0.122107836  C
H     0.372491419 0.568856201 0.078684679  H
O     0.623444293 0.377738341 0.395441426  O
O     0.714348216 0.394837072 0.244345177  O
C     0.641413051 0.406968140 0.298271115  C
C     0.569135514 0.457950836 0.239329666  C
C     0.570277023 0.460478634 0.122107871  C
H     0.627508376 0.431143966 0.078684609  H
O     0.123444560 0.877738539 0.895440039  O
O     0.214349075 0.894837654 0.744344729  O
C     0.141412966 0.906968036 0.798270754  C
C     0.069135439 0.957951077 0.739329926  C
C     0.070277636 0.960478798 0.622106281  C
H     0.127508809 0.931144360 0.578684126  H
Al    0.691983435 0.308017916 0.500000632 Al
Al    0.191982283 0.808016546 -0.000000759 Al
Al    0.808018001 0.191983512 -0.000000454 Al
Al    0.308016453 0.691982263 0.500000690 Al
Al    0.691983072 0.191982934 0.750000316 Al
Al    0.191981684 0.691981787 0.249999678 Al
Al    0.808018105 0.308018214 0.249999858 Al
Al    0.308017115 0.808017194 0.750000154 Al
O     0.748748886 0.249999672 0.625000226  O
H     0.813554758 0.249999851 0.625000324  H
O     0.248748047 0.749999764 0.124999800  O
H     0.313555867 0.749999651 0.124999903  H
O     0.751251913 0.250000031 0.124999681  O
H     0.686444156 0.250000411 0.124999792  H
O     0.251251299 0.750000593 0.624999837  O
H     0.186445057 0.749999677 0.625000751  H
O     0.749999680 0.248748995 0.874999941  O
H     0.750000011 0.313554489 0.874999740  H
O     0.249999822 0.748747906 0.375000094  O
H     0.249999889 0.813556137 0.374999756  H
O     0.749999895 0.251252142 0.375000311  O
H     0.750000499 0.186443826 0.375000310  H
O     0.250000518 0.751251104 0.874999824  O
H     0.250000089 0.686445446 0.874999394  H
C     0.500000239 0.500000201 0.701229017  C
C     0.499999946 0.500000043 0.938135219  C
H     0.500000293 0.500000225 0.609930846  H
C     0.000000083 -0.000000284 0.201226557  C
C     0.000000037 0.000000028 0.438135100  C
H     -0.000000141 0.000000039 0.109930475  H
C     0.499999841 -0.000000370 0.951227291  C
C     0.500000683 0.000000478 0.188134258  C
H     0.500000103 -0.000000328 0.859930457  H
C     0.000000046 0.500000290 0.451227682  C
C     -0.000000441 0.499999773 0.688134804  C
H     -0.000000258 0.500000123 0.359929979  H
C     0.000000035 0.499999974 0.048772271  C
C     0.000000025 0.500000018 0.811865062  C
H     0.000000088 0.500000023 0.140069814  H
C     0.499999750 -0.000000219 0.548772373  C
C     0.500000202 0.000000285 0.311865930  C
H     0.499999637 -0.000000219 0.640069846  H
C     0.000000252 0.000000223 0.798771200  C
C     -0.000000038 -0.000000029 0.561864892  C
H     0.000000231 0.000000304 0.890069188  H
C     0.499999678 0.500000078 0.298772732  C
C     0.500000005 0.500000075 0.061864938  C
H     0.499999981 0.499999856 0.390069607  H
